9
Frame 0
 C         -1.254648888889       -0.248998888889        0.001273333333
 C          0.022801111111        0.537981111111       -0.002236666667
 C          1.229081111111       -0.354268888889        0.001243333333
 H          0.050281111111        1.185971111111        0.899793333333
 H          0.049941111111        1.178451111111       -0.909636666667
 H          1.129561111111       -1.435638888889        0.005753333333
 H         -1.246988888889       -1.334908888889        0.005773333333
 O         -2.326308888889        0.334731111111       -0.000956666667
 O          2.346281111111        0.136681111111       -0.001006666667
9
Frame 1
 C         -1.252174586137       -0.199343701676        0.084568495048
 C          0.009456664046        0.519270426141       -0.120181889601
 C          1.362585293860       -0.356225140876        0.073015737615
 H         -0.079540507358        1.262885253902        0.756028752049
 H          0.122563365415        1.301287718786       -0.927161264175
 H          0.972527665412       -1.472085330042        0.175493837846
 H         -1.206540970775       -1.253814798829       -0.301244719432
 O         -2.430638634288        0.147861260356        0.286746160583
 O          2.501761709826        0.050164312238       -0.027265109932
9
Frame 2
 C         -1.240213563598       -0.165559308503        0.151324032706
 C         -0.015646784465        0.488816463597       -0.245377486619
 C          1.502873371260       -0.354487591851        0.130451943941
 H         -0.207096176697        1.315946895257        0.600709830424
 H          0.184167489448        1.407759050459       -0.910129354361
 H          0.809426868352       -1.433638003015        0.387459530612
 H         -1.245402339362       -1.061058095552       -0.595388876754
 O         -2.449031231121       -0.128789722829        0.548047683062
 O          2.660922366182       -0.068989687563       -0.067097303011
9
Frame 3
 C         -1.230431142864       -0.139095871272        0.198532237209
 C         -0.055069636660        0.454895275640       -0.355178313393
 C          1.664294063453       -0.360336819214        0.149412702753
 H         -0.350794868102        1.352047066412        0.460997766127
 H          0.235243868831        1.473207726543       -0.868493302844
 H          0.667538179880       -1.314597260937        0.624724321379
 H         -1.381497235897       -0.783891194274       -0.816047355337
 O         -2.382199977615       -0.462737022474        0.715850799728
 O          2.832916748975       -0.219491900424       -0.109798855623
9
Frame 4
 C         -1.234384640013       -0.114063247106        0.257407253504
 C         -0.119160777065        0.422511710751       -0.432351827712
 C          1.860124953853       -0.409401201115        0.099192090200
 H         -0.552269621306        1.395845129436        0.315964616709
 H          0.277359920789        1.504423049451       -0.780501921451
 H          0.563304870407       -1.110106641849        0.858163669600
 H         -1.549847792025       -0.486900896809       -0.903804674039
 O         -2.281412493282       -0.795234342613        0.734259145396
 O          3.036285578641       -0.407073560147       -0.148328352207
9
Frame 5
 C         -1.254881964781       -0.062037242403        0.337656874213
 C         -0.211430533672        0.412286483314       -0.480136630008
 C          2.093842942428       -0.563260667531       -0.037378107993
 H         -0.856831049227        1.451762421540        0.109048539190
 H          0.268028574449        1.541574836841       -0.595270639997
 H          0.494930494786       -0.815064000495        1.047410980437
 H         -1.685220612977       -0.252218200490       -0.884746449380
 O         -2.133786426142       -1.071590926375        0.647904852822
 O          3.285348575135       -0.641452704402       -0.144489419284
9
Frame 6
 C         -1.293131861044        0.002995634732        0.407749471653
 C         -0.353852989549        0.392261987157       -0.560786414489
 C          2.416469507470       -0.816654354064       -0.175946168533
 H         -1.129504059001        1.451153712221       -0.034109314584
 H          0.134217797620        1.542799511823       -0.371471540653
 H          0.420886069167       -0.399538969093        1.181066441679
 H         -1.865036107563       -0.039573351698       -0.825134582394
 O         -1.939417058852       -1.254336412701        0.486136741059
 O          3.609368701751       -0.879107758377       -0.107504633737
9
Frame 7
 C         -1.466551519207        0.115830159091        0.469367568734
 C         -0.566998491642        0.391430102782       -0.572920606030
 C          3.141623463680       -1.184636800189       -0.404239292293
 H         -1.438532157309        1.476372347278       -0.097705903119
 H         -0.134807760605        1.550338559500       -0.174345723362
 H          0.110313262919       -0.001892760880        1.350279630577
 H         -2.050564165469        0.082624788866       -0.812835308623
 O         -1.898308855899       -1.276503220740        0.353584756165
 O          4.303826223531       -1.153563175709       -0.111185122049
9
Frame 8
 C         -1.721808384453        0.249006951193        0.528239131658
 C         -0.890323262558        0.481299790234       -0.580603547053
 C          4.237641251732       -1.661933467594       -0.676813887319
 H         -1.855755285191        1.544809479995       -0.063560053288
 H         -0.546201338109        1.652418723767       -0.035130575091
 H         -0.275057951725        0.355666691180        1.429975246077
 H         -2.318961333126        0.170660330934       -0.802569443774
 O         -1.898166024759       -1.230318373874        0.269034612035
 O          5.268632328188       -1.561610125836       -0.068571483246
9
Frame 9
 C         -1.689136339588        0.294311772920        0.563875754750
 C         -0.943428877137        0.489788461242       -0.614085040904
 C          4.362696985288       -1.929898604641       -0.717482615695
 H         -1.981374076462        1.525541181501       -0.013787397570
 H         -0.665327713235        1.669351373288        0.039842479046
 H         -0.327831566351        0.470832411224        1.428505005498
 H         -2.325089655875        0.185065032497       -0.807475486406
 O         -1.673507265475       -1.220451835522        0.169488141951
 O          5.242998508836       -1.484539792508       -0.048880840668
9
Frame 10
 C         -1.650148312790        0.349085938468        0.598671694994
 C         -0.958806894617        0.469761517703       -0.625653276953
 C          4.472582945129       -2.007176978751       -0.834354597231
 H         -2.087579131373        1.485731520988        0.006622670750
 H         -0.764821380126        1.687580463970        0.078856147828
 H         -0.377078541436        0.573795322075        1.448635096213
 H         -2.291065285346        0.165593667290       -0.827740423813
 O         -1.470516015267       -1.192230137482        0.126719674327
 O          5.127432615827       -1.532141314260        0.028243013885
9
Frame 11
 C         -1.633908969246        0.408352518106        0.623534636109
 C         -0.937135073954        0.450236354982       -0.607694303890
 C          4.566365236774       -2.147582350205       -0.873203943205
 H         -2.187903367930        1.436994701462        0.009592315824
 H         -0.862431340243        1.714480226954        0.132983481700
 H         -0.472946630020        0.652914464688        1.508376353482
 H         -2.211305630818        0.152249774289       -0.887917958898
 O         -1.294740965784       -1.152808424363        0.096491892328
 O          5.034006741221       -1.514837265913       -0.002162473448
9
Frame 12
 C         -1.656895963322        0.485792130816        0.648728437063
 C         -0.924944401887        0.447330924328       -0.567741760793
 C          4.765414358250       -2.254957878249       -0.964028904239
 H         -2.329216742221        1.371585571026       -0.000447815871
 H         -1.013765289954        1.769237034309        0.174420789698
 H         -0.620170214239        0.760003742324        1.578720705869
 H         -2.124058736497        0.135519030697       -0.954784795302
 O         -1.132445091122       -1.089735473666        0.106304062551
 O          5.036082080991       -1.624775081585       -0.021170718974
9
Frame 13
 C         -1.664043078868        0.555279803400        0.666955453052
 C         -0.881669147708        0.442264917583       -0.519902508526
 C          4.860231224572       -2.340707059184       -1.016710256607
 H         -2.440369326800        1.277307230799       -0.009274355802
 H         -1.146549350615        1.815095104475        0.206219896848
 H         -0.752073133171        0.838596926557        1.641182157586
 H         -1.990522485727        0.124060621226       -1.028061483346
 O         -0.953117905964       -1.025664756964        0.124145539031
 O          4.968113204281       -1.686232787893       -0.064554442235
9
Frame 14
 C         -1.845396568267        0.679170476533        0.690918185314
 C         -0.938463235256        0.542591229092       -0.409926474123
 C          5.474892649076       -2.677387677119       -1.132575496381
 H         -2.699739053749        1.170065592131       -0.043922881455
 H         -1.494403009745        1.931675215439        0.258886344781
 H         -1.125737140677        0.994688386274        1.743406461427
 H         -1.886130615770        0.173104752776       -1.093616636834
 O         -0.832012746386       -0.845633930099        0.213993632850
 O          5.346989720773       -1.968274045028       -0.227163135580
9
Frame 15
 C         -1.866063705695        0.751580395341        0.695617488856
 C         -0.901888671102        0.550713598268       -0.355856712712
 C          5.577762657704       -2.717329175697       -1.168549106308
 H         -2.782696682343        1.024144636220       -0.033434793032
 H         -1.642375109554        1.965050011888        0.257515230018
 H         -1.262234447717        1.041811786369        1.770636292995
 H         -1.714511223322        0.186370216213       -1.149447855355
 O         -0.643427686981       -0.737783351399        0.264927149278
 O          5.235434869012       -2.064558117203       -0.281407693740
9
Frame 16
 C         -1.891050515269        0.818813289938        0.691824816950
 C         -0.879632854938        0.562731446585       -0.314590799290
 C          5.649060753469       -2.828951179319       -1.117958032455
 H         -2.851911693024        0.869701159531        0.013537344973
 H         -1.789234072734        1.993005998283        0.265897859536
 H         -1.387374166618        1.046593509070        1.783160608264
 H         -1.541017721393        0.224763184100       -1.208494346642
 O         -0.451443708668       -0.607399179165        0.294496227516
 O          5.142603979174       -2.079258229023       -0.407873678852
9
Frame 17
 C         -1.977005123485        0.918582451618        0.683264697430
 C         -0.929148301212        0.583627223348       -0.276584042465
 C          5.946285400036       -2.919197204480       -1.131302723584
 H         -2.962018163941        0.732381133666        0.113229097462
 H         -1.993173261298        2.044446328758        0.263970653022
 H         -1.559342946772        1.079564506230        1.778357575956
 H         -1.418574324408        0.280016326727       -1.252859860784
 O         -0.307143996441       -0.413560290897        0.336737043624
 O          5.200120717521       -2.305860474969       -0.514812440660
9
Frame 18
 C         -2.098475672840        1.033750047233        0.664013469512
 C         -1.039712641323        0.561891248358       -0.245177667954
 C          6.306074820177       -3.119493747173       -1.067305684760
 H         -3.090168278487        0.660612536202        0.269769455097
 H         -2.176405536980        2.119838321045        0.282484509844
 H         -1.756934885240        1.086388602326        1.756178712338
 H         -1.339160957330        0.361504054650       -1.292052477778
 O         -0.234794314603       -0.221058379944        0.347420510362
 O          5.429577466626       -2.483432682697       -0.715330826661
9
Frame 19
 C         -2.432016955716        1.257153616278        0.652803104621
 C         -1.410609338082        0.558733648800       -0.184857969543
 C          7.438553563526       -3.586183648542       -1.171952668953
 H         -3.423924247933        0.785592408799        0.493998329671
 H         -2.483771456238        2.325349347066        0.356574767181
 H         -2.169247603445        1.192885479990        1.730400151789
 H         -1.525012272355        0.532326592214       -1.263404757629
 O         -0.447910586213        0.017278339563        0.334490321827
 O          6.453938896456       -3.083135784168       -0.948051278964
