7
Properties=species:S:1:pos:R:3 pbc="F F F"
C       -0.57774000      -0.28543000       0.00176000
C        0.74807000       0.40374000       0.00531000
H       -1.23978000       0.19288000      -0.74950000
H       -1.04157000      -0.19748000       1.00605000
H       -0.46237000      -1.36128000      -0.25049000
H        0.80421000       1.46270000       0.23444000
O        1.76921000      -0.21513000      -0.24759000
7
Properties=species:S:1:pos:R:3 pbc="F F F"
C       -6.58008714       0.03798714      -0.00329286
C        2.85715286      -0.00000286      -0.00000286
H        3.96655286      -0.00000286      -0.00000286
H        2.48735286       1.03857714      -0.12401286
H        2.48734286      -0.41189286       0.96143714
H        2.48734286      -0.62668286      -0.83743286
O       -7.70562714      -0.03798286       0.00328714
