12
Frame 0
 C         -1.377655833333       -0.153528333333        0.105515833333
 C         -0.267935833333        0.754831666667       -0.273944166667
 C          0.834184166667       -0.117748333333        0.204315833333
 H         -0.304695833333        1.780161666667        0.151695833333
 H         -0.228825833333        0.803661666667       -1.386564166667
 H         -2.310095833333        0.109921666667       -0.437284166667
 H         -1.565465833333       -0.126688333333        1.203705833333
 H          0.920334166667       -0.077288333333        1.317035833333
 H          2.726694166667       -0.379128333333       -0.054644166667
 O          0.437324166667       -1.410448333333       -0.191984166667
 O         -0.906315833333       -1.435108333333       -0.238174166667
 O          2.042454166667        0.251361666667       -0.399674166667
12
Frame 1
 C         -1.316480142371       -0.239152005107        0.241417470598
 C         -0.326369720225        0.710636881141       -0.299347427890
 C          0.823071467755       -0.162150773218        0.123915890044
 H         -0.368678399036        1.915985254121       -0.056725570981
 H         -0.361118642398        0.925388501272       -1.496665455950
 H         -2.261321320269        0.094649672565       -0.329523615596
 H         -1.375830156463       -0.000447702104        1.352325642019
 H          0.804439847215       -0.155240170369        1.286898014301
 H          2.699549088998       -0.439553716402        0.227416037290
 O          0.440681823526       -1.373858727918       -0.539274789889
 O         -0.854473185873       -1.506631864404       -0.240131801599
 O          2.096529339141        0.230374650424       -0.270304392347
12
Frame 2
 C         -1.213026432090       -0.340601457047        0.366689516652
 C         -0.380488740465        0.677015238098       -0.295350292700
 C          0.833705258516       -0.175722970253        0.068392502668
 H         -0.526198009561        2.049921548524       -0.289963591508
 H         -0.505246515114        1.108631971559       -1.561754921664
 H         -2.193485653417        0.022894335240       -0.221699228173
 H         -1.233664149060        0.141003173859        1.426469388984
 H          0.746455373921       -0.163182209035        1.280335569992
 H          2.606045897252       -0.640546062286        0.438759132233
 O          0.437557701720       -1.267138653497       -0.820392543436
 O         -0.729364985927       -1.570307220854       -0.258353554791
 O          2.157710254224        0.158032305692       -0.133131978257
12
Frame 3
 C         -1.071317512289       -0.425373388424        0.472230272243
 C         -0.400844137498        0.639156806159       -0.293197162449
 C          0.868105244048       -0.213780271587       -0.003015203814
 H         -0.797998765605        2.154422023132       -0.465947776482
 H         -0.633994168739        1.324018750488       -1.609051817358
 H         -2.104726262270       -0.026554873348       -0.108015612503
 H         -1.091615521399        0.268028215040        1.442909966813
 H          0.759706270862       -0.134528669464        1.260800244694
 H          2.464522036695       -0.751213653666        0.747346400652
 O          0.389963271641       -1.164534701890       -1.050780566955
 O         -0.608607086890       -1.614692076814       -0.304514994028
 O          2.226806631443       -0.054948159625       -0.088763750813
12
Frame 4
 C         -0.893117854500       -0.474788956473        0.564341830215
 C         -0.385249462812        0.615015597908       -0.290912482860
 C          0.939813666680       -0.222026162556       -0.037986943096
 H         -1.252897911068        2.222781803586       -0.649699154502
 H         -0.749916530024        1.573246947108       -1.658118727602
 H         -1.985554743203       -0.065524933643       -0.023072901821
 H         -0.979992304149        0.401570358415        1.414737389279
 H          0.802649623832       -0.040810387924        1.275593850654
 H          2.269693987884       -1.032010873848        0.900271868101
 O          0.380939413786       -1.058847412899       -1.184969677323
 O         -0.445893762325       -1.632783689904       -0.328308509948
 O          2.299525875900       -0.285822289769        0.018123458904
12
Frame 5
 C         -0.733262587342       -0.615982656921        0.692106144368
 C         -0.476330200479        0.527091464117       -0.209128878915
 C          0.950942383583       -0.234114054667       -0.073517430656
 H         -1.412728396455        2.523834899349       -0.986820446312
 H         -0.693764625309        1.840330328395       -1.740855638005
 H         -1.933792324089       -0.241651573760        0.154978125231
 H         -0.924481942321        0.357337866693        1.465782710960
 H          0.830853603327        0.007338062446        1.298991175885
 H          2.113812766670       -1.090213998647        1.005497148013
 O          0.286533032519       -0.960604102099       -1.282138463353
 O         -0.295492450651       -1.696442388804       -0.355133784440
 O          2.287710740546       -0.416923846103        0.030239337226
12
Frame 6
 C         -0.511983187225       -0.639983748497        0.724500459231
 C         -0.241335741799        0.468351449282       -0.216448081015
 C          1.149410905684       -0.415216174959       -0.031246810267
 H         -2.095495208964        3.071008518343       -1.422109366279
 H         -1.337588782562        2.240282149356       -1.726578837794
 H         -1.707111603191       -0.148718775429        0.099240114279
 H         -0.746790719595        0.452003711905        1.375415621992
 H          0.948360703828       -0.053150489515        1.379823426833
 H          1.905616346907       -1.390256661425        1.266546828710
 O          0.395122224797       -0.984710504207       -1.312837832287
 O         -0.147331761170       -1.742820879514       -0.384627631133
 O          2.389126823290       -0.856788595341        0.248322107731
12
Frame 7
 C         -0.161841650975       -0.990778567127        0.955912587289
 C          0.040713131147        0.153482938722        0.041190065281
 C          1.437063106564       -0.794791539841        0.162541035268
 H         -3.288198175900        4.802417751793       -2.579485809474
 H         -2.650336536158        3.846548324781       -2.679381361222
 H         -1.394923811309       -0.396895943988        0.311084881889
 H         -0.460329472987        0.153130666386        1.566344151267
 H          1.197581192614       -0.409752219518        1.644648418155
 H          1.944844704074       -1.812604505637        1.534182244762
 O          0.585713085165       -1.163301394743       -1.175372404850
 O          0.151191129092       -2.026338350716       -0.286662643468
 O          2.598523298672       -1.361117160111        0.504998835104
12
Frame 8
 C         -0.045229185260       -0.999343751063        0.972140509909
 C          0.167293790966        0.148071130520        0.064717859565
 C          1.521824856285       -0.916357407629        0.182882566597
 H         -3.446469770868        4.889896808008       -2.843360867549
 H         -2.943042928363        3.992557972530       -2.551481851741
 H         -1.269881000276       -0.259695329636        0.253355459506
 H         -0.370168038077        0.217287334956        1.513035048532
 H          1.216445433908       -0.466370759754        1.728398019975
 H          1.757475129612       -1.915263258874        1.634443156377
 O          0.609719930504       -1.085674798001       -1.201482739857
 O          0.220274570669       -2.009238276390       -0.357544207647
 O          2.581757210900       -1.595869664666        0.604897046332
12
Frame 9
 C          0.043200447257       -0.985648877337        0.974015442803
 C          0.277393600675        0.149312340235        0.058034477981
 C          1.577249325854       -1.031901486641        0.196347589256
 H         -3.494414254390        4.893488439977       -2.875836942255
 H         -3.174160660796        4.000559729580       -2.502895669520
 H         -1.153900987210       -0.091803895906        0.156675967902
 H         -0.292924959375        0.309693383780        1.427967384007
 H          1.195606981981       -0.489325168226        1.803315139597
 H          1.576320841937       -1.952207295168        1.717945950518
 O          0.630810452649       -1.023737165993       -1.225159069329
 O          0.275480570683       -1.992008149731       -0.420772149811
 O          2.539338640736       -1.786421854569        0.690361878852
12
Frame 10
 C          0.121916156631       -0.976216720899        0.974385962706
 C          0.375371801503        0.136294452644        0.038339157033
 C          1.616483310401       -1.152193433908        0.212551445120
 H         -3.512570465267        4.867903907762       -2.883267981938
 H         -3.397878656862        4.025746877804       -2.433991407771
 H         -1.031021811812        0.079841190303        0.036251115505
 H         -0.218513003788        0.397626636513        1.327293702449
 H          1.144137292479       -0.493473813965        1.879861050158
 H          1.421045304796       -1.949562572519        1.795225050026
 O          0.654398610678       -0.990430798135       -1.242742792050
 O          0.334003955444       -1.995068899277       -0.472464138719
 O          2.492627505795       -1.950466826321        0.768558837482
12
Frame 11
 C          0.194513105078       -0.975463330806        0.978667994712
 C          0.453801031537        0.108095262981        0.012941160325
 C          1.640075517440       -1.273536906645        0.230973566194
 H         -3.641555612367        4.838346447947       -2.844387382201
 H         -3.461934805384        4.058255058861       -2.387697579150
 H         -0.896561034286        0.256579883144       -0.103602926929
 H         -0.152402009503        0.472189604658        1.218004730544
 H          1.055935071950       -0.477138328412        1.958965456141
 H          1.298762072343       -1.913594958961        1.868839051366
 O          0.668097159980       -0.982379933610       -1.254882968106
 O          0.393279931226       -2.018743198849       -0.512936402666
 O          2.447989571985       -2.092609600308        0.835115299770
12
Frame 12
 C          0.270188800217       -0.991867088089        0.996206935148
 C          0.494877214704        0.064820354722       -0.005379058862
 C          1.653766251210       -1.384512663467        0.243082580476
 H         -3.728331006099        4.833965945639       -2.774960653441
 H         -3.519901964048        4.070982983142       -2.372594790880
 H         -0.750670192102        0.436398145449       -0.249465555493
 H         -0.115658318703        0.515721740921        1.116502379168
 H          0.923706718314       -0.446092527059        2.042550200591
 H          1.241564736009       -1.844537388913        1.936993010712
 O          0.649607162546       -0.990029664067       -1.258845870606
 O          0.453803048935       -2.059831116429       -0.543116802630
 O          2.427047549017       -2.205018721849        0.869027625815
12
Frame 13
 C          0.364937094213       -1.036559873224        1.043142750306
 C          0.465289816080        0.007570152218        0.009497457606
 C          1.663003240287       -1.468781510081        0.226652225584
 H         -3.776347359224        4.833466371950       -2.739453730000
 H         -3.524019241938        4.096957585067       -2.383817826056
 H         -0.600879364829        0.620789282895       -0.361863721087
 H         -0.159438089532        0.494737255384        1.058241833303
 H          0.735984107811       -0.440996280562        2.142658043348
 H          1.313209544502       -1.730651316055        1.990822246233
 O          0.551940067872       -0.997844532866       -1.242037358089
 O          0.503879813814       -2.106916776114       -0.565097430765
 O          2.462440370943       -2.271770358612        0.821255509617
12
Frame 14
 C          0.481131175602       -1.071012004203        1.101968055133
 C          0.402144389667       -0.049877010290        0.041909696264
 C          1.666898517848       -1.539405559423        0.194825756532
 H         -3.799616327150        4.835510149544       -2.716847468636
 H         -3.505399669322        4.124799695446       -2.413545125341
 H         -0.391640244244        0.791538833351       -0.434624295010
 H         -0.272934656095        0.430381686840        1.012553650232
 H          0.498832548930       -0.512150957319        2.234935278030
 H          1.471055007256       -1.531806288614        2.023043493714
 O          0.402533359864       -1.014018493548       -1.199230848223
 O          0.532624488314       -2.146712709094       -0.577506108343
 O          2.514371409328       -2.317247342690        0.732517915649
12
Frame 15
 C          0.592917197190       -1.063287989806        1.148928852311
 C          0.373332739003       -0.097826918822        0.052990079732
 C          1.665487437023       -1.630274929262        0.203679121989
 H         -3.872146005789        4.876605592681       -2.691675896151
 H         -3.547188855122        4.196024871927       -2.425184596015
 H         -0.075230143478        0.894958826589       -0.495230800265
 H         -0.391398547924        0.370116170409        0.908793008497
 H          0.283404312121       -0.655341613231        2.263120027404
 H          1.596260222622       -1.255456055939        2.036602207844
 O          0.287339055709       -1.054536275190       -1.145448515091
 O          0.562488553480       -2.187004503365       -0.575948408995
 O          2.524734035164       -2.393977175991        0.719374918740
12
Frame 16
 C          0.680885975963       -1.019871876103        1.182299545653
 C          0.315984460584       -0.125740566333        0.059300746259
 C          1.645900629192       -1.693732422370        0.232845800692
 H         -3.900711019959        4.874290390005       -2.650693499892
 H         -3.536022132614        4.231657561279       -2.417743041709
 H          0.195804913091        0.915038848625       -0.504068772042
 H         -0.511279204799        0.331689991657        0.805149249748
 H          0.164197744658       -0.850628316588        2.243175505209
 H          1.668602400663       -0.940248483793        1.999233506006
 O          0.163368643153       -1.081753121063       -1.087144033862
 O          0.599096497742       -2.196213869337       -0.590131879437
 O          2.514171092326       -2.444488135978        0.727776873376
12
Frame 17
 C          0.749606732664       -0.954611125161        1.205611186499
 C          0.257012435668       -0.146674329608        0.057210990618
 C          1.615930031822       -1.755832019817        0.299554765273
 H         -3.930537039713        4.871879857248       -2.610113105803
 H         -3.534640973344        4.275706970293       -2.381797204533
 H          0.448444137084        0.854954282434       -0.499198443532
 H         -0.614041687967        0.323198802296        0.682672246949
 H          0.128528879118       -1.042290948410        2.182624478516
 H          1.673942864290       -0.624692567529        1.931914014615
 O          0.061359164893       -1.112896826455       -1.029310128975
 O          0.668609753697       -2.181306618327       -0.621649128835
 O          2.475785701790       -2.507435476964        0.782480329209
12
Frame 18
 C          0.816497781202       -0.880682478913        1.226128100143
 C          0.202300629722       -0.157988019027        0.063306095072
 C          1.569334577367       -1.822358135677        0.389512856192
 H         -3.957504829591        4.866923426511       -2.581296309286
 H         -3.544716789099        4.319155747915       -2.334520373679
 H          0.661931846008        0.737637343661       -0.463869217720
 H         -0.702045462724        0.330980907922        0.554966250322
 H          0.153720911437       -1.201577594778        2.088321094053
 H          1.643542887322       -0.337627490525        1.837785159842
 O         -0.026154947611       -1.141484906088       -0.960281078086
 O          0.778693470273       -2.116437862837       -0.674361102650
 O          2.404399925696       -2.596540938164        0.854308525797
12
Frame 19
 C          1.117545426908       -1.092712146260        1.392066161679
 C          0.375281885007       -0.434488886412        0.236186216114
 C          1.723788099869       -2.168430870772        0.619945979444
 H         -5.090399721382        6.219139770239       -3.298415476748
 H         -4.675211987576        5.716020608139       -3.023200633717
 H          1.037420203492        0.322486907846       -0.242972513224
 H         -0.554345606595        0.066165439939        0.579521782091
 H          0.435288909503       -1.566460973836        2.130071643590
 H          1.821428417685       -0.381631494588        1.874832106950
 O          0.141853835453       -1.436428470278       -0.735494539774
 O          1.136181207082       -2.264140716077       -0.575554158431
 O          2.531169330556       -2.979519167938        1.043013432026
