8
Frame 0
 C         -1.198517500000       -0.276792500000        0.031180000000
 C         -0.108667500000        0.468897500000       -0.163340000000
 C          1.239132500000       -0.068102500000        0.086940000000
 H         -2.181957500000        0.140337500000       -0.159960000000
 H         -1.122907500000       -1.302532500000        0.380120000000
 H         -0.219207500000        1.491387500000       -0.513000000000
 H          1.372762500000       -1.087362500000        0.436700000000
 O          2.219362500000        0.634167500000       -0.098640000000
8
Frame 1
 C         -1.198030430259       -0.248298502588        0.186226451750
 C         -0.131775402689        0.510499834549       -0.052165744118
 C          1.171493601047       -0.138915613677       -0.123451958786
 H         -2.153020378084        0.156581698987       -0.246405756458
 H         -0.974797049749       -1.338625333933        0.390452989030
 H         -0.159917652326        1.478483060478       -0.596746647249
 H          1.276362893210       -1.100051837423        0.419785619635
 O          2.169684418850        0.680326693607        0.022305046195
8
Frame 2
 C         -1.171089225553       -0.206862411836        0.356950592778
 C         -0.135377377522        0.550996824937        0.025420638269
 C          1.087557042380       -0.164972969485       -0.285456879947
 H         -2.080490849547        0.134531774219       -0.283474794121
 H         -0.849448964699       -1.339529153557        0.344714107871
 H         -0.124782060297        1.429756979642       -0.697261257630
 H          1.162825848474       -1.076039048302        0.385896137273
 O          2.110805586764        0.672118004382        0.153211455508
8
Frame 3
 C         -1.126605488637       -0.157304667725        0.509811360741
 C         -0.126158579056        0.594927704307        0.081508101530
 C          0.997696330048       -0.168023574925       -0.412688754664
 H         -1.985989888989        0.075598217500       -0.308222146731
 H         -0.760056371816       -1.310450770239        0.294852945064
 H         -0.114327150931        1.377184829260       -0.784609935546
 H          1.058295292073       -1.049427826003        0.342850482354
 O          2.057145857308        0.637496087825        0.276497947252
8
Frame 4
 C         -1.068551627351       -0.105627653209        0.642322530648
 C         -0.109679905455        0.633916324367        0.117903668782
 C          0.905605242039       -0.167336101759       -0.517606531214
 H         -1.877601941627        0.000991547717       -0.312589230623
 H         -0.708916770416       -1.267268862896        0.226783541789
 H         -0.121537600435        1.325686429006       -0.860647652297
 H          0.970285777506       -1.017900751097        0.313990025436
 O          2.010396825740        0.597539067871        0.389843647478
8
Frame 5
 C         -1.002027955099       -0.059825029431        0.748488164383
 C         -0.088530135630        0.663025152242        0.135752525990
 C          0.812158496719       -0.167682207056       -0.613621219974
 H         -1.774965002124       -0.060343233262       -0.303510377504
 H         -0.671174936612       -1.227777948790        0.165665516882
 H         -0.138885575925        1.278801395057       -0.929701325763
 H          0.900252986904       -0.984901704902        0.289835454830
 O          1.963172121766        0.558703576142        0.507091261156
8
Frame 6
 C         -0.926151288208       -0.018620142369        0.835817445616
 C         -0.062852919704        0.681612526276        0.137752795089
 C          0.714248605967       -0.172667437344       -0.707767078111
 H         -1.687259812134       -0.099065033822       -0.286131763780
 H         -0.636213939107       -1.199922032021        0.115177833153
 H         -0.163201927739        1.236056525329       -0.996893190747
 H          0.849710168236       -0.951018939605        0.264614374163
 O          1.911721112690        0.523624533556        0.637429584617
8
Frame 7
 C         -0.837415469175        0.024511529461        0.910748802670
 C         -0.029636750758        0.691129482416        0.126059798830
 C          0.603283779635       -0.185289063012       -0.805187800365
 H         -1.612071896172       -0.121451009202       -0.264351961434
 H         -0.602946109675       -1.183815973242        0.075284178627
 H         -0.194008955412        1.198486132826       -1.064301770693
 H          0.819338489333       -0.914929044221        0.231749897364
 O          1.853456912226        0.491357944974        0.789998855000
8
Frame 8
 C         -0.731352990476        0.075115257740        0.973479469709
 C          0.018425193374        0.690624877841        0.099709815588
 C          0.466222042518       -0.208162923833       -0.908337175718
 H         -1.547801173372       -0.132001902724       -0.238524793083
 H         -0.570459629952       -1.179745305535        0.048086451029
 H         -0.229708824516        1.166323144993       -1.132321679035
 H          0.813434450914       -0.872656295380        0.181754094099
 O          1.781240931510        0.460503146898        0.976153817412
8
Frame 9
 C         -0.612159165752        0.134842330758        1.020575314336
 C          0.085545567579        0.677273544916        0.061921444542
 C          0.296502038125       -0.240620143335       -1.003785966473
 H         -1.496111518198       -0.130722385502       -0.211992484857
 H         -0.536797481307       -1.189053407326        0.031467811613
 H         -0.266250982327        1.137405377790       -1.197491529735
 H          0.835990377974       -0.820333968050        0.109233176860
 O          1.693281163906        0.431208650748        1.190072233714
8
Frame 10
 C         -0.493867480820        0.195354299786        1.053676875750
 C          0.162574639590        0.651228472781        0.023848076269
 C          0.122202238674       -0.268787104645       -1.064420639788
 H         -1.460485024158       -0.118649719846       -0.189475540591
 H         -0.507046047608       -1.207775917359        0.008357336888
 H         -0.298407519097        1.105221776086       -1.253620549459
 H          0.872881933525       -0.768855841482        0.029191704842
 O          1.602147259895        0.412264034679        1.392442736089
8
Frame 11
 C         -0.380878302627        0.248264600056        1.080468486586
 C          0.238924515205        0.613535906583       -0.006551155891
 C         -0.031443399780       -0.283349516475       -1.089026076453
 H         -1.438205907768       -0.099284064297       -0.173103897038
 H         -0.490744354953       -1.234382649955       -0.036283195445
 H         -0.325692722648        1.071198454477       -1.297947510288
 H          0.906132785522       -0.735362597954       -0.041424411218
 O          1.521907387048        0.419379867566        1.563867759747
8
Frame 12
 C         -0.268164871866        0.286744086115        1.105842627274
 C          0.314041701573        0.558858559850       -0.027637593472
 C         -0.164526482454       -0.283082800671       -1.091622224055
 H         -1.425916709300       -0.074857555231       -0.161049986237
 H         -0.494916212166       -1.270367482335       -0.111064742615
 H         -0.347202932221        1.041999524677       -1.328206772878
 H          0.929601251510       -0.731527005644       -0.100339412480
 O          1.457084254924        0.472232673240        1.714078104463
8
Frame 13
 C         -0.147500536254        0.299431717451        1.134964905148
 C          0.391522921486        0.476044423545       -0.037017089870
 C         -0.281687868628       -0.265498650973       -1.081019050491
 H         -1.419968810863       -0.047238707409       -0.147840824013
 H         -0.524964630831       -1.315540271497       -0.227749539859
 H         -0.357631385271        1.025579435985       -1.337173541419
 H          0.940796845337       -0.769592257820       -0.150256557347
 O          1.399433465023        0.596814310719        1.846091697851
8
Frame 14
 C         -0.015621826978        0.295015206094        1.170618330129
 C          0.468287849608        0.364663149190       -0.034725548281
 C         -0.380291489583       -0.229912256029       -1.054923847914
 H         -1.414872984647       -0.025715805838       -0.125675441530
 H         -0.571215076286       -1.358132091069       -0.390756154645
 H         -0.358085144935        1.021829812300       -1.321550366251
 H          0.940780419871       -0.844578457880       -0.183188748621
 O          1.331018252951        0.776830443232        1.940201777113
8
Frame 15
 C          0.121659939815        0.306643720299        1.209278908696
 C          0.531690688507        0.239740804262       -0.021799477534
 C         -0.458809226911       -0.183620808028       -1.008835039527
 H         -1.414460490901       -0.026033542566       -0.094130555031
 H         -0.613703781255       -1.380484060774       -0.600313397365
 H         -0.357458416208        1.021730525121       -1.293658631519
 H          0.931405895373       -0.936957134186       -0.176893570684
 O          1.259675391579        0.958980495872        1.986351762965
8
Frame 16
 C          0.264018157680        0.347295127492        1.242506073418
 C          0.572031583255        0.111306950697        0.003539629660
 C         -0.521853241880       -0.140026299486       -0.944715831032
 H         -1.427985116155       -0.052510090636       -0.063499028205
 H         -0.640839771554       -1.359088579867       -0.849334311473
 H         -0.368645607160        1.012641853357       -1.268291812469
 H          0.919148209003       -1.033707669828       -0.120861624958
 O          1.204125786812        1.114088708270        2.000656905060
8
Frame 17
 C          0.423296027478        0.390793278253        1.262050290394
 C          0.588070827093       -0.020917102424        0.041682565059
 C         -0.572782721121       -0.116990735537       -0.869254221279
 H         -1.461505258356       -0.070607915846       -0.051253006854
 H         -0.667858990333       -1.278277886374       -1.091176407430
 H         -0.402266525694        0.975932715787       -1.257448716298
 H          0.943081539278       -1.119276419698       -0.044953206028
 O          1.149965101656        1.239344065838        2.010352702436
8
Frame 18
 C          0.568629061177        0.493524322932        1.239393517050
 C          0.557977359568       -0.152737730843        0.110574944447
 C         -0.623859579481       -0.117471949078       -0.797498444783
 H         -1.537841624165       -0.105940807409       -0.091661645535
 H         -0.652130415741       -1.141254912754       -1.321920324859
 H         -0.480757267521        0.914595813082       -1.265147439005
 H          0.990938608459       -1.184214091161        0.084434687187
 O          1.177043857704        1.293499355232        2.041824705499
8
Frame 19
 C          0.792783161577        0.535014582440        1.170482033436
 C          0.507578009279       -0.318617551538        0.225724874456
 C         -0.654998615297       -0.115711822679       -0.706804225617
 H         -1.607233095323       -0.073836235368       -0.149167552920
 H         -0.692238443097       -0.969914052686       -1.417665008103
 H         -0.520358933042        0.821323050505       -1.289037507644
 H          1.118325648044       -1.202023097099        0.125898976438
 O          1.056142267860        1.323765126425        2.040568409953
