12
Properties=species:S:1:pos:R:3 pbc="F F F"
C       -0.53378000       0.25908000      -0.10088000
C        0.73057000      -0.59699000      -0.05249000
C        1.96102000       0.25088000       0.08184000
H       -0.60331000       0.84795000       0.84260000
H       -0.46987000       0.94234000      -0.97882000
H        0.80459000      -1.19581000      -0.98606000
H        0.67231000      -1.28924000       0.81528000
H        1.88977000       1.33343000       0.13277000
H       -3.15506000       0.08828000       0.60558000
O       -2.70410000       0.21661000      -0.26830000
O       -1.65240000      -0.58029000      -0.22676000
O        3.06028000      -0.27627000       0.13521000
12
Properties=species:S:1:pos:R:3 pbc="F F F"
C        1.24535333      -0.24900250       0.00127083
C        2.52280333       0.53797750      -0.00223917
C        3.72908333      -0.35427250       0.00124083
H       -6.74399667      -0.28579250      -0.02743917
H       -8.02268667       0.61424750       0.05896083
H        2.55028333       1.18596750       0.89979083
H        2.54994333       1.17844750      -0.90963917
H        3.62956333      -1.43564250       0.00575083
H        1.25301333      -1.33491250       0.00577083
O       -7.73331667      -0.32845250      -0.03152917
O        0.17369333       0.33472750      -0.00095917
O        4.84628333       0.13667750      -0.00100917
