12
Properties=species:S:1:pos:R:3 pbc="F F F"
C       -0.53378000       0.25908000      -0.10088000
C        0.73057000      -0.59699000      -0.05249000
C        1.96102000       0.25088000       0.08184000
H       -0.60331000       0.84795000       0.84260000
H       -0.46987000       0.94234000      -0.97882000
H        0.80459000      -1.19581000      -0.98606000
H        0.67231000      -1.28924000       0.81528000
H        1.88977000       1.33343000       0.13277000
H       -3.15506000       0.08828000       0.60558000
O       -2.70410000       0.21661000      -0.26830000
O       -1.65240000      -0.58029000      -0.22676000
O        3.06028000      -0.27627000       0.13521000
12
Properties=species:S:1:pos:R:3 pbc="F F F"
C        2.13481750      -0.27679417       0.03117750
C        3.22466750       0.46889583      -0.16334250
C        4.57246750      -0.06810417       0.08693750
H        1.15137750       0.14033583      -0.15996250
H        2.21042750      -1.30253417       0.38011750
H        3.11412750       1.49138583      -0.51300250
H        4.70609750      -1.08736417       0.43669750
H       -7.83675250       0.49950583       0.35019750
H       -5.49657250      -0.49951417      -0.35020250
O        5.55269750       0.63416583      -0.09864250
O       -7.28825250      -0.19167417      -0.09968250
O       -6.04508250       0.19166583       0.09967750
