12
Properties=species:S:1:pos:R:3 pbc="F F F"
C       -0.53378000       0.25908000      -0.10088000
C        0.73057000      -0.59699000      -0.05249000
C        1.96102000       0.25088000       0.08184000
H       -0.60331000       0.84795000       0.84260000
H       -0.46987000       0.94234000      -0.97882000
H        0.80459000      -1.19581000      -0.98606000
H        0.67231000      -1.28924000       0.81528000
H        1.88977000       1.33343000       0.13277000
H       -3.15506000       0.08828000       0.60558000
O       -2.70410000       0.21661000      -0.26830000
O       -1.65240000      -0.58029000      -0.22676000
O        3.06028000      -0.27627000       0.13521000
12
Properties=species:S:1:pos:R:3 pbc="F F F"
C       -1.37765417      -0.15353083       0.10551333
C       -0.26793417       0.75482917      -0.27394667
C        0.83418583      -0.11775083       0.20431333
H       -0.30469417       1.78015917       0.15169333
H       -0.22882417       0.80365917      -1.38656667
H       -2.31009417       0.10991917      -0.43728667
H       -1.56546417      -0.12669083       1.20370333
H        0.92033583      -0.07729083       1.31703333
H        2.72669583      -0.37913083      -0.05464667
O        0.43732583      -1.41045083      -0.19198667
O       -0.90631417      -1.43511083      -0.23817667
O        2.04245583       0.25135917      -0.39967667
