12
Properties=species:S:1:pos:R:3 pbc="F F F"
C       -1.37766000      -0.15353000       0.10552000
C       -0.26794000       0.75483000      -0.27394000
C        0.83418000      -0.11775000       0.20432000
H       -0.30470000       1.78016000       0.15170000
H       -0.22883000       0.80366000      -1.38656000
H       -2.31010000       0.10992000      -0.43728000
H       -1.56547000      -0.12669000       1.20371000
H        0.92033000      -0.07729000       1.31704000
H        2.72669000      -0.37913000      -0.05464000
O        0.43732000      -1.41045000      -0.19198000
O       -0.90632000      -1.43511000      -0.23817000
O        2.04245000       0.25136000      -0.39967000
12
Properties=species:S:1:pos:R:3 pbc="F F F"
C        3.26568833      -6.13608250       0.07543417
C       -1.98636167       3.88123750      -0.00175583
C       -3.31217167       4.57040750      -0.00530583
H        4.74140833      -4.78604250      -0.26458583
H        3.06274833      -7.19026250       0.22842417
H       -1.32432167       4.35954750       0.74950417
H       -1.52253167       3.96918750      -1.00604583
H       -2.10173167       2.80538750       0.25049417
H       -3.36831167       5.62936750      -0.23443583
O        2.34586833      -5.33348250       0.08628417
O        4.53297833      -5.72082250      -0.12555583
O       -4.33331167       3.95153750       0.24759417
