12
Reaction 1=3+4 final: products [3, 4]
O -7.07720  0.49986  0.08628
C -6.15738 -0.30274  0.07543
O -4.89009  0.11252 -0.12556
H -4.68166  1.04730 -0.26459
H -6.36032 -1.35692  0.22842
C  3.58892 -0.28543  0.00176
C  4.91473  0.40374  0.00531
H  2.92688  0.19288 -0.74950
H  3.12509 -0.19748  1.00605
H  3.70429 -1.36128 -0.25049
O  5.93587 -0.21513 -0.24759
H  4.97087  1.46270  0.23444
