7
Properties=species:S:1:pos:R:3 pbc="F F F"
C       -0.57774000      -0.28543000       0.00176000
C        0.74807000       0.40374000       0.00531000
H       -1.23978000       0.19288000      -0.74950000
H       -1.04157000      -0.19748000       1.00605000
H       -0.46237000      -1.36128000      -0.25049000
H        0.80421000       1.46270000       0.23444000
O        1.76921000      -0.21513000      -0.24759000
7
Properties=species:S:1:pos:R:3 pbc="F F F"
C       -0.86456714      -0.17307571      -0.00000286
C        0.26276286       0.54338429      -0.00000286
H       -1.82703714       0.32822429      -0.00000286
H       -0.83550714      -1.25826571      -0.00000286
H        0.20712286       1.62715429      -0.00000286
H        1.58150286      -1.01493571      -0.00000286
O        1.47575286      -0.05248571      -0.00000286
