12
Reaction 2=20+21 initial: reactants [2]
C -1.37766 -0.15353  0.10552
C -0.26794  0.75483 -0.27394
C  0.83418 -0.11775  0.20432
H -0.30470  1.78016  0.15170
H -0.22883  0.80366 -1.38656
O  0.43732 -1.41045 -0.19198
O -0.90632 -1.43511 -0.23817
H -2.31010  0.10992 -0.43728
H -1.56547 -0.12669  1.20371
O  2.04245  0.25136 -0.39967
H  0.92033 -0.07729  1.31704
H  2.72669 -0.37913 -0.05464
