12

O          4.58946       -5.33348        0.08628
C          5.50928       -6.13608        0.07543
O          6.77657       -5.72082       -0.12556
H          6.98500       -4.78604       -0.26459
H          5.30634       -7.19026        0.22842
C          0.25723        3.88124       -0.00176
C         -1.06858        4.57041       -0.00531
H          0.91927        4.35955        0.74950
H          0.72106        3.96919       -1.00605
H          0.14186        2.80539        0.25049
O         -2.08972        3.95154        0.24759
H         -1.12472        5.62937       -0.23444
