6
Properties=species:S:1:pos:R:3 pbc="F F F"
C        0.90770000      -0.07842000       0.00000000
H        1.02051000      -1.15841000       0.00000000
H       -2.13104000       0.38358000       0.00000000
O       -1.37793000      -0.25966000       0.00000000
O       -0.31832000       0.48123000       0.00000000
O        1.89909000       0.63169000       0.00000000
6
Properties=species:S:1:pos:R:3 pbc="F F F"
C       -0.10599833      -0.30921500      -0.03696000
H       -0.05618833      -1.27662500      -0.57854000
H        1.46457167       0.77757500      -0.17219000
O       -1.04943833       0.60229500      -0.45325000
O       -1.25715833      -0.08606500       0.68136000
O        1.00422167       0.29204500       0.55958000
