12
Reaction 2=17 final: products [17]
C -1.43279  0.00387 -0.02303
C  0.08736  0.00489 -0.17319
H -1.84413  0.98183 -0.35220
H -1.71929 -0.16376  1.03773
H -1.88209 -0.79599 -0.65025
O  0.61657  1.03894  0.62557
O  1.75653  1.41070  0.07015
C  0.66313 -1.31954  0.25239
H  0.30432  0.17366 -1.25525
O  1.86491 -1.51918  0.17690
H  1.56565  2.29641 -0.33280
H  0.01982 -2.11188  0.62398
