12
Frame 0
 C         -1.377655833333       -0.153528333333        0.105515833333
 C         -0.267935833333        0.754831666667       -0.273944166667
 C          0.834184166667       -0.117748333333        0.204315833333
 H         -0.304695833333        1.780161666667        0.151695833333
 H         -0.228825833333        0.803661666667       -1.386564166667
 H         -2.310095833333        0.109921666667       -0.437284166667
 H         -1.565465833333       -0.126688333333        1.203705833333
 H          0.920334166667       -0.077288333333        1.317035833333
 H          2.726694166667       -0.379128333333       -0.054644166667
 O          0.437324166667       -1.410448333333       -0.191984166667
 O         -0.906315833333       -1.435108333333       -0.238174166667
 O          2.042454166667        0.251361666667       -0.399674166667
12
Frame 1
 C         -1.381672147797       -0.110854171584        0.073625507921
 C         -0.228448697810        0.733860247938       -0.276938811612
 C          0.890879988009       -0.112127717735        0.184715140528
 H         -0.443030771763        1.751039335490        0.194167396562
 H         -0.323233039254        0.733367886907       -1.414218712901
 H         -2.288073311375        0.131595096309       -0.519947107723
 H         -1.434383861127        0.030094650921        1.208769898715
 H          0.841594691458       -0.244960149273        1.337157655370
 H          2.699633499410       -0.426970068807       -0.080951737535
 O          0.442192964941       -1.376579189568       -0.319306994479
 O         -0.870677588953       -1.467071517443       -0.074570486805
 O          2.095218274260        0.358605596844       -0.312501748042
12
Frame 2
 C         -1.385532586969       -0.076044588490        0.043071382020
 C         -0.191547074374        0.714340599802       -0.265456958904
 C          0.945883225999       -0.106821986382        0.178978190095
 H         -0.568271156626        1.718381114400        0.212394735499
 H         -0.400787841590        0.688136686498       -1.416196783794
 H         -2.258785910664        0.147373970708       -0.604899035441
 H         -1.327133329218        0.154853342138        1.196474299093
 H          0.773000153641       -0.393854771760        1.341436074873
 H          2.664402295936       -0.462614582957       -0.145837170843
 O          0.425200603191       -1.344170993733       -0.398344484268
 O         -0.816381232170       -1.477731277379        0.076769730602
 O          2.139952852844        0.438152487155       -0.218389978932
12
Frame 3
 C         -1.389807714049       -0.046469615476        0.015469621318
 C         -0.156779452821        0.690689823031       -0.246718877927
 C          0.997899620973       -0.106635863460        0.183865919101
 H         -0.679948431615        1.688873921710        0.191661342341
 H         -0.461592389767        0.652972832171       -1.407152063469
 H         -2.233133002308        0.179242943289       -0.670410540000
 H         -1.230370885288        0.240664891332        1.182474807001
 H          0.714142029208       -0.519468125848        1.343522708998
 H          2.624455367405       -0.473219059445       -0.233838882063
 O          0.398952089254       -1.321039391587       -0.442384973316
 O         -0.763313570643       -1.481717327813        0.194775820195
 O          2.179496339652        0.496104972096       -0.111264882180
12
Frame 4
 C         -1.394564568543       -0.020529237651       -0.012848040511
 C         -0.124607583475        0.659588137298       -0.227630736815
 C          1.046566544227       -0.112441854627        0.192750715162
 H         -0.770424353522        1.656491286502        0.150679816802
 H         -0.509467799316        0.616521391988       -1.397927675895
 H         -2.215479026814        0.234292955572       -0.715812433027
 H         -1.140613555174        0.299826240217        1.167280744346
 H          0.662826365415       -0.623813293868        1.349094010829
 H          2.582594514903       -0.449244465660       -0.330064360979
 O          0.369049601153       -1.308186376191       -0.464698685258
 O         -0.717020876985       -1.488238472586        0.288179971922
 O          2.211140738130        0.535733689005        0.000996673426
12
Frame 5
 C         -1.399889126223        0.002857236196       -0.044833154856
 C         -0.095366314412        0.622503071690       -0.209936732895
 C          1.093048845517       -0.121506670635        0.202847706012
 H         -0.840908236917        1.622209696863        0.106895288446
 H         -0.546561177883        0.577306919907       -1.392991421922
 H         -2.203366303663        0.305313691972       -0.749424956523
 H         -1.059688419786        0.341583605432        1.150067484936
 H          0.614755792175       -0.708697064556        1.362267641517
 H          2.535338358036       -0.394398845301       -0.433162998887
 O          0.339346391965       -1.304205075282       -0.471602013166
 O         -0.675999812650       -1.499807284305        0.368117716312
 O          2.239290003841        0.556840718018        0.111755441026
12
Frame 6
 C         -1.405951015862        0.025586634876       -0.081222345109
 C         -0.069876372212        0.580798742781       -0.194868434540
 C          1.137933652598       -0.131765941838        0.208465098600
 H         -0.895785646071        1.587710050921        0.074277971178
 H         -0.577424785352        0.536254118071       -1.394465673033
 H         -2.192601594286        0.384725957648       -0.778716339883
 H         -0.986151763113        0.371334554498        1.131443340717
 H          0.569907684079       -0.777402574254        1.382007295012
 H          2.485358606716       -0.318411178228       -0.527283467117
 O          0.308589127586       -1.307043009634       -0.469217997398
 O         -0.638474744585       -1.515490517575        0.441232123804
 O          2.264476850504        0.563703162734        0.208348427769
12
Frame 7
 C         -1.413005605565        0.049885080743       -0.120990992363
 C         -0.049536889947        0.537869682693       -0.180868588654
 C          1.181367875933       -0.138877895089        0.206052741331
 H         -0.943392879586        1.556203295158        0.058980513774
 H         -0.606033427958        0.497827183825       -1.401272621893
 H         -2.180676045307        0.462373473698       -0.810703750641
 H         -0.918584504719        0.390848439218        1.113873249664
 H          0.528897971495       -0.832318563897        1.406952866985
 H          2.437355112696       -0.241782305695       -0.602018234937
 O          0.276530481495       -1.311787965506       -0.462456224001
 O         -0.601086682069       -1.533697559230        0.509121387031
 O          2.288164593532        0.563457134082        0.283329653704
12
Frame 8
 C         -1.420683012429        0.076807710553       -0.164154390738
 C         -0.034325344752        0.494328631578       -0.167100577576
 C          1.223423948546       -0.141534979440        0.194560074851
 H         -0.989138094109        1.528248686140        0.061103561079
 H         -0.632948463778        0.461456697411       -1.413417785153
 H         -2.166593152197        0.538474065754       -0.847213780644
 H         -0.856298703062        0.401509440894        1.098364117026
 H          0.490418025057       -0.876448517779        1.437814976786
 H          2.394430292970       -0.172302801849       -0.661390520239
 O          0.243281662632       -1.317241944684       -0.452567413605
 O         -0.561709376449       -1.554758856174        0.573238588726
 O          2.310142217572        0.561461867596        0.340763149488
12
Frame 9
 C         -1.427908489543        0.106782087159       -0.211672879706
 C         -0.023556011581        0.449429311054       -0.152572436426
 C          1.264053680981       -0.140110200264        0.174042786162
 H         -1.036533275752        1.502487651276        0.079117708516
 H         -0.656789189992        0.424699486848       -1.431292146124
 H         -2.147557090430        0.617430647043       -0.888798891182
 H         -0.799210659626        0.404129097450        1.085284184575
 H          0.451767673271       -0.911751718272        1.476981405614
 H          2.355111607197       -0.107253562114       -0.714553624492
 O          0.208834804328       -1.324153561180       -0.438768125910
 O         -0.518600900334       -1.579766243115        0.635810781488
 O          2.330387851482        0.558077004114        0.386421237486
12
Frame 10
 C         -1.433231143596        0.140708363694       -0.264485018765
 C         -0.016789929750        0.402480340075       -0.136501211624
 C          1.302602936782       -0.134600830860        0.143405985992
 H         -1.088832932284        1.476235909753        0.112880390376
 H         -0.676357604501        0.384627096254       -1.455418610234
 H         -2.119011615963        0.703544761947       -0.936136303269
 H         -0.747127799720        0.399050329761        1.075105149509
 H          0.409712490787       -0.938911650380        1.526770235389
 H          2.316891960934       -0.041902190970       -0.768068921910
 O          0.172692289907       -1.333031459537       -0.420126712568
 O         -0.469416196400       -1.609526918004        0.698937127575
 O          2.348867543803        0.551326248266        0.423637889529
12
Frame 11
 C         -1.434908924784        0.180377087327       -0.322868854745
 C         -0.013907430933        0.353223014030       -0.118305856937
 C          1.338136224778       -0.124650316030        0.100187718876
 H         -1.150246271028        1.445850211476        0.162221260991
 H         -0.692047538066        0.338399308423       -1.485996471209
 H         -2.074965783243        0.800539598783       -0.989951935850
 H         -0.699168705611        0.387247115781        1.068627166041
 H          0.360697409737       -0.958818748474        1.589143183292
 H          2.278423116373        0.028108519426       -0.825534102854
 O          0.133841539005       -1.344199948526       -0.395816424763
 O         -0.410572115578       -1.644577081817        0.764260210991
 O          2.364718479349        0.538501239601        0.454034106167
12
Frame 12
 C         -1.430049081306        0.227615726020       -0.387091991704
 C         -0.014590310812        0.301445503269       -0.097445860857
 C          1.369037154240       -0.109380542763        0.041257586214
 H         -1.226746347914        1.405139294358        0.225165845967
 H         -0.705074072046        0.282995739141       -1.522750944188
 H         -2.005996865688        0.913004281344       -1.049586195158
 H         -0.654113870630        0.370831407211        1.066482463757
 H          0.298765026100       -0.972878895072        1.666490769163
 H          2.236557536350        0.110078148251       -0.890345277239
 O          0.091359438928       -1.357902060447       -0.363771560659
 O         -0.336333162501       -1.684663552856        0.833676471811
 O          2.377184555279        0.513714951544        0.477918692893
12
Frame 13
 C         -1.414047883895        0.283299260879       -0.457035197577
 C         -0.017784617386        0.247787585268       -0.073157116950
 C          1.393128728925       -0.086611756383       -0.035980548613
 H         -1.327673254171        1.343698259807        0.295070589125
 H         -0.717835229762        0.217633497221       -1.564354617482
 H         -1.898551226187        1.044312193550       -1.110906518831
 H         -0.609566422262        0.355478797392        1.069264419393
 H          0.213621114666       -0.985861410859        1.760343513117
 H          2.185708992431        0.212848506685       -0.964485324272
 O          0.045424822213       -1.373718074707       -0.319592556154
 O         -0.239216427946       -1.726757037486        0.909182273014
 O          2.386791403373        0.467890178633        0.491651085231
12
Frame 14
 C         -1.380492110179        0.345350917316       -0.530315644744
 C         -0.019648631636        0.195357960471       -0.044622804276
 C          1.409444024302       -0.052948183798       -0.128960888916
 H         -1.462668590541        1.246557565623        0.354216821583
 H         -0.732821289541        0.150563101921       -1.608194952432
 H         -1.745969790159        1.188193240455       -1.161402780051
 H         -0.558100333929        0.355925885179        1.077338889926
 H          0.090594922821       -1.011667129216        1.865775051630
 H          2.119442046860        0.340067071088       -1.045219875216
 O         -0.000284109103       -1.389275613784       -0.256130179427
 O         -0.117459711263       -1.761310914783        0.992177249701
 O          2.397963572368        0.393186099528        0.485339112222
12
Frame 15
 C         -1.324150131189        0.408884031919       -0.597644965153
 C         -0.012062630630        0.150565936245       -0.012294199411
 C          1.421419876533       -0.004063469862       -0.221085410304
 H         -1.622449183440        1.097107203570        0.377233087584
 H         -0.752333292787        0.097638254598       -1.648856426426
 H         -1.562812504999        1.331076415255       -1.174955769751
 H         -0.485496588733        0.387491587039        1.088582429488
 H         -0.093923900287       -1.075323641892        1.960955371874
 H          2.039052939591        0.455863803484       -1.132018161231
 O         -0.036872306478       -1.397572738499       -0.169008101487
 O          0.016106477311       -1.773632873650        1.082254662741
 O          2.413521245108        0.321965491792        0.446837482075
12
Frame 16
 C         -1.254798790431        0.471817517859       -0.653249817092
 C          0.000923128771        0.117203528049        0.027518926742
 C          1.426497318127        0.056421161603       -0.299852917038
 H         -1.778504945401        0.922711099120        0.325306650268
 H         -0.785030003261        0.062892270403       -1.682343097169
 H         -1.370351038488        1.459774965934       -1.152918532189
 H         -0.400485499251        0.444108696716        1.101686693712
 H         -0.274255594441       -1.191799203127        2.024505172114
 H          1.939315712044        0.560994467839       -1.214518160136
 O         -0.068702391908       -1.395287465625       -0.055262846324
 O          0.135454566735       -1.757279473759        1.187501772445
 O          2.429937537504        0.248442434989        0.391626154668
12
Frame 17
 C         -1.180097607421        0.530877957102       -0.697222834797
 C          0.012618370059        0.096100361347        0.075535528949
 C          1.421366993847        0.131567925418       -0.356088629254
 H         -1.915348512067        0.755178483165        0.180518327111
 H         -0.838594735835        0.042388842511       -1.704044086269
 H         -1.179293545040        1.565541754405       -1.104975420531
 H         -0.302886641366        0.513273715076        1.115566277718
 H         -0.400506138116       -1.357443840585        2.066894022896
 H          1.818962317203        0.654074285527       -1.284204051979
 O         -0.102283430021       -1.377064614836        0.076342088208
 O          0.227857637804       -1.718136985491        1.300321842511
 O          2.438205290953        0.163642116360        0.331356935437
12
Frame 18
 C         -1.108027738147        0.583510098394       -0.735120862205
 C          0.023321389394        0.086693289625        0.125407264390
 C          1.413853133106        0.218637473999       -0.388692812820
 H         -2.014880956447        0.598576612012       -0.047713644766
 H         -0.912052251228        0.051078109859       -1.723958104304
 H         -1.018005381469        1.650698002963       -1.034367894792
 H         -0.186798618209        0.587042851642        1.127259772328
 H         -0.463293140396       -1.556894218097        2.104096771087
 H          1.686690149613        0.717140020793       -1.343960253659
 O         -0.139501762268       -1.343735575084        0.218070023502
 O          0.289075261452       -1.666629176975        1.420806904728
 O          2.429619914599        0.073882510869        0.278172836510
12
Frame 19
 C         -1.038430606838        0.616407999053       -0.771448792643
 C          0.037329439612        0.081625381661        0.172030387359
 C          1.409154100304        0.306555832297       -0.406111158364
 H         -2.043354965819        0.454953399006       -0.326455881521
 H         -0.994140955601        0.091429991350       -1.750136875089
 H         -0.898395716087        1.706167562309       -0.938379202292
 H         -0.060608460435        0.650093319284        1.127886636870
 H         -0.478164392734       -1.751704419151        2.130358382581
 H          1.532889632920        0.774642998260       -1.378383487925
 O         -0.182489933137       -1.297018342663        0.367890258049
 O          0.314522847857       -1.602441736670        1.553597018391
 O          2.401689009958       -0.030711984736        0.219152714583
