12
Reaction 1=10+11+12 initial: reactants [1]
O -2.70410  0.21661 -0.26830
O -1.65240 -0.58029 -0.22676
C -0.53378  0.25908 -0.10088
C  0.73057 -0.59699 -0.05249
H -0.60331  0.84795  0.84260
H -0.46987  0.94234 -0.97882
C  1.96102  0.25088  0.08184
H  0.80459 -1.19581 -0.98606
H  0.67231 -1.28924  0.81528
O  3.06028 -0.27627  0.13521
H  1.88977  1.33343  0.13277
H -3.15506  0.08828  0.60558
