9
Properties=species:S:1:pos:R:3 pbc="F F F"
C       -1.25465000      -0.24900000       0.00127000
C        0.02280000       0.53798000      -0.00224000
C        1.22908000      -0.35427000       0.00124000
H        0.05028000       1.18597000       0.89979000
H        0.04994000       1.17845000      -0.90964000
H        1.12956000      -1.43564000       0.00575000
H       -1.24699000      -1.33491000       0.00577000
O       -2.32631000       0.33473000      -0.00096000
O        2.34628000       0.13668000      -0.00101000
9
Properties=species:S:1:pos:R:3 pbc="F F F"
C       -1.68779000      -0.51113667      -0.00000333
C       -0.55532000       0.19053333      -0.00000333
C        1.81446000       0.21099333      -0.00000333
H        1.84740000       1.29726333      -0.00000333
H       -2.64547000      -0.00068667      -0.00000333
H       -1.66541000      -1.59656667      -0.00000333
H       -0.60327000       1.27711333      -0.00000333
O        0.63579000      -0.45014667      -0.00000333
O        2.85960000      -0.41737667      -0.00000333
