9
Frame 0
 C         -1.254648888889       -0.248998888889        0.001273333333
 C          0.022801111111        0.537981111111       -0.002236666667
 C          1.229081111111       -0.354268888889        0.001243333333
 H          0.050281111111        1.185971111111        0.899793333333
 H          0.049941111111        1.178451111111       -0.909636666667
 H          1.129561111111       -1.435638888889        0.005753333333
 H         -1.246988888889       -1.334908888889        0.005773333333
 O         -2.326308888889        0.334731111111       -0.000956666667
 O          2.346281111111        0.136681111111       -0.001006666667
9
Frame 1
 C         -1.240565179972       -0.209349024023        0.044436115637
 C          0.039451170605        0.569501812880        0.003514880664
 C          1.213978747781       -0.349320253094        0.057058710563
 H         -0.055833693283        1.122330385117        0.994793338871
 H          0.060974207097        1.179334460988       -0.922998353833
 H          1.102983566263       -1.422665738868        0.182011537830
 H         -1.130271310646       -1.324400414911       -0.115900825077
 O         -2.319869423825        0.353754179878       -0.020391060401
 O          2.329151915982        0.080814592033       -0.222524344255
9
Frame 2
 C         -1.221798785414       -0.182020658282        0.067258032056
 C          0.055305243422        0.600411235440        0.022414058863
 C          1.208529664779       -0.330967636204        0.109974647209
 H         -0.159483530015        1.060860118395        1.074818401064
 H          0.072287411538        1.196861658227       -0.911417531629
 H          1.092294031397       -1.377666719948        0.378322318473
 H         -1.001525058337       -1.301076678586       -0.243136661607
 O         -2.307412197275        0.361178796508       -0.038957740587
 O          2.261803219905       -0.027580115550       -0.459275523843
9
Frame 3
 C         -1.198726510138       -0.163452309275        0.078192271557
 C          0.071056994758        0.631164107332        0.047461610568
 C          1.212564222784       -0.302941720491        0.150258704001
 H         -0.254976305718        0.993599421994        1.143807828672
 H          0.083540164067        1.228639095649       -0.884533844420
 H          1.107230042341       -1.297890914259        0.575979248259
 H         -0.860974590473       -1.265236085749       -0.370867007749
 O         -2.289826912832        0.360814717533       -0.060134013884
 O          2.130112895212       -0.184696312733       -0.680164797003
9
Frame 4
 C         -1.173033258866       -0.150416530184        0.083185270577
 C          0.086620420046        0.661004033112        0.070594099549
 C          1.223433216726       -0.269410203467        0.169954181610
 H         -0.338559321937        0.920613712702        1.198269425237
 H          0.093521646751        1.264135274353       -0.856641365238
 H          1.140990743374       -1.192416997707        0.739929510873
 H         -0.718531699373       -1.219826865786       -0.492521591390
 O         -2.270423277469        0.355260634063       -0.073021966390
 O          1.955981530748       -0.368943057086       -0.839747564828
9
Frame 5
 C         -1.150605843511       -0.139394213902        0.089976869764
 C          0.100755916964        0.685705487502        0.088595502331
 C          1.237256003626       -0.237479401095        0.171838530903
 H         -0.405451892805        0.842101351483        1.240431122518
 H          0.101303569234        1.289584373248       -0.837247355293
 H          1.188277023853       -1.080530544410        0.858725402424
 H         -0.590526087492       -1.169990443680       -0.603376476637
 O         -2.251864774991        0.353215386443       -0.081047009531
 O          1.770856085122       -0.543211995589       -0.927896586477
9
Frame 6
 C         -1.137184333629       -0.126405255850        0.100512873240
 C          0.111968243951        0.702231654957        0.097205991168
 C          1.247339479852       -0.213741240829        0.161091467887
 H         -0.456714263648        0.764350617627        1.270479555875
 H          0.105645621202        1.303807864038       -0.829166701839
 H          1.235010195554       -0.982425050958        0.932422058745
 H         -0.489045076216       -1.130271728479       -0.693138734760
 O         -2.238867487368        0.361703133929       -0.081570236961
 O          1.621847620303       -0.679249994436       -0.957836273356
9
Frame 7
 C         -1.131549665345       -0.110168822574        0.116194952014
 C          0.120749746483        0.712518314953        0.098666966224
 C          1.252674321220       -0.197583852588        0.147593822747
 H         -0.498159249598        0.694501926058        1.293070658802
 H          0.107541403390        1.309316315254       -0.829728347523
 H          1.272733702162       -0.905721663331        0.975130793309
 H         -0.406610659912       -1.106727061519       -0.762667763302
 O         -2.230607779136        0.379689569736       -0.077874239708
 O          1.513228180736       -0.775824725989       -0.960386842563
9
Frame 8
 C         -1.131350384303       -0.090989309935        0.136143947254
 C          0.127519156386        0.718566964584        0.095188834964
 C          1.254193310179       -0.186557481981        0.134969908329
 H         -0.534459730496        0.632846643871        1.312416057228
 H          0.107594177441        1.309313069685       -0.835876137017
 H          1.302265991163       -0.844785665940        1.001847687875
 H         -0.334067536351       -1.096640894661       -0.822372631912
 O         -2.225943230015        0.404425088073       -0.069751813489
 O          1.434248245996       -0.846178413696       -0.952565853234
9
Frame 9
 C         -1.135072843774       -0.069157980539        0.160691444130
 C          0.132350951892        0.721426084913        0.087567501018
 C          1.252424414183       -0.179274779860        0.124837168134
 H         -0.567771413125        0.579016453682        1.331299135392
 H          0.105632325659        1.304050716333       -0.847269055754
 H          1.324475411826       -0.795164813398        1.020727933556
 H         -0.265445630251       -1.095533304007       -0.881087241246
 O         -2.224221089888        0.434016261471       -0.055870001609
 O          1.377627873477       -0.899378638595       -0.940896883620
9
Frame 10
 C         -1.141945457349       -0.044596150029        0.190565558932
 C          0.134965139348        0.721418271362        0.075736462811
 C          1.247422692437       -0.175075982191        0.117827107449
 H         -0.598684717830        0.531904714999        1.351898421215
 H          0.101075625261        1.292531575305       -0.864688885563
 H          1.339483116224       -0.753011505910        1.036783686832
 H         -0.196235661731       -1.098864251988       -0.946389611800
 O         -2.225236508912        0.467743961538       -0.034416192947
 O          1.339155772552       -0.942050633084       -0.927316546928
9
Frame 11
 C         -1.151780457813       -0.016810716129        0.227298455845
 C          0.134764321447        0.717988697888        0.059514787998
 C          1.238570424251       -0.174373514799        0.114416349162
 H         -0.627895130561        0.491832107834        1.376217748542
 H          0.092684978308        1.272622754037       -0.889044042911
 H          1.348308926073       -0.715922452273        1.053148592502
 H         -0.121780414767       -1.102380373370       -1.025042139199
 O         -2.228858293224        0.505817299446       -0.004292554757
 O          1.315985646286       -0.978773802634       -0.912217197182
9
Frame 12
 C         -1.164953753753        0.015832727630        0.272497893177
 C          0.130634907365        0.709977413470        0.038367621851
 C          1.224881371883       -0.177763357928        0.114429873761
 H         -0.656055232844        0.459795673018        1.406219083683
 H          0.078768087520        1.242476769451       -0.920852863892
 H          1.349821402089       -0.683784096640        1.070564325101
 H         -0.034976083020       -1.105509794135       -1.119933605341
 O         -2.235211576961        0.550123677055        0.035612215502
 O          1.307090877720       -1.011149011921       -0.896904543842
9
Frame 13
 C         -1.182344758174        0.055972069904        0.328946436000
 C          0.120352494653        0.694942750893        0.011159111239
 C          1.204285354180       -0.186766513325        0.117628028108
 H         -0.683194273354        0.437938124975        1.444404358080
 H          0.055996004993        1.197536900386       -0.961738837375
 H          1.341361713386       -0.657419761104        1.089554261705
 H          0.074867805623       -1.106510715029       -1.235622436982
 O         -2.244680769809        0.604230220803        0.088191077913
 O          1.313356428501       -1.039923077503       -0.882521998687
9
Frame 14
 C         -1.205356230266        0.108113456497        0.400873810631
 C          0.099595440479        0.667825909216       -0.023901800029
 C          1.172779265325       -0.204840926197        0.123168280379
 H         -0.708849666964        0.430755133360        1.494027520509
 H          0.017964139127        1.129473640350       -1.013898132803
 H          1.318983814756       -0.639567793856        1.109774146886
 H          0.224818654266       -1.101595879465       -1.376829109775
 O         -2.257679470239        0.674370449004        0.157890194295
 O          1.337744053515       -1.064533988910       -0.871104910094
9
Frame 15
 C         -1.234359257670        0.179259664089        0.491302843543
 C          0.061271969295        0.620023215527       -0.068411056317
 C          1.124744375084       -0.237592101678        0.127589255909
 H         -0.732590458748        0.443937945716        1.557808646561
 H         -0.045540660539        1.028663767882       -1.077224686202
 H          1.278294368187       -0.637613523121        1.126920833379
 H          0.434645748471       -1.087709397487       -1.536497447846
 O         -2.273008279607        0.769625416147        0.247314888170
 O          1.386542195526       -1.078594987076       -0.868803277197
9
Frame 16
 C         -1.262923420315        0.273499127094        0.591765611149
 C         -0.000353391435        0.545179866192       -0.120943440671
 C          1.058865918432       -0.287131405200        0.123290733915
 H         -0.755887542592        0.466985927376        1.633386192676
 H         -0.141729438101        0.892611889608       -1.146320872018
 H          1.222400351333       -0.654402223084        1.132785490501
 H          0.699936704527       -1.063700301409       -1.684142124597
 O         -2.281998498358        0.897505170772        0.349830020829
 O          1.461689316508       -1.070548051349       -0.879651611784
9
Frame 17
 C         -1.275624261739        0.385813664864        0.683865436941
 C         -0.082599649081        0.443949522672       -0.176507593885
 C          0.983807319736       -0.349062346646        0.104569197147
 H         -0.788631874427        0.468380608471        1.714333379845
 H         -0.266182051243        0.726725496737       -1.213085074539
 H          1.171569281823       -0.668401777902        1.125504217212
 H          0.982506922285       -1.015876772077       -1.791555339964
 O         -2.266720871691        1.054923914305        0.447395781160
 O          1.541875184337       -1.046452310424       -0.894520003919
9
Frame 18
 C         -1.247784113555        0.516647027799        0.763484513205
 C         -0.175451936129        0.318697397712       -0.222658254983
 C          0.909400143094       -0.425095119481        0.075024673524
 H         -0.843491792060        0.466018126744        1.798935512753
 H         -0.404110556096        0.544926721688       -1.262286197121
 H          1.137994740304       -0.678006536300        1.106036530645
 H          1.242853142008       -0.927000301030       -1.855840280891
 O         -2.223872544876        1.201460573482        0.510989519267
 O          1.604462917310       -1.017647890614       -0.913686016399
9
Frame 19
 C         -1.158037558837        0.672597898075        0.824404130296
 C         -0.275848390521        0.176087260879       -0.244995197624
 C          0.839184933271       -0.510309072152        0.039480400687
 H         -0.919715621299        0.490548089603        1.868009122965
 H         -0.540892991293        0.374036412830       -1.280104341504
 H          1.109224465092       -0.711199017158        1.072137504594
 H          1.464290136917       -0.820364573114       -1.879644286559
 O         -2.168274637114        1.295389161548        0.541476902875
 O          1.650069663783       -0.966786160510       -0.940764235731
