9
Frame 0
 C         -1.254648888889       -0.248998888889        0.001273333333
 C          0.022801111111        0.537981111111       -0.002236666667
 C          1.229081111111       -0.354268888889        0.001243333333
 H          0.050281111111        1.185971111111        0.899793333333
 H          0.049941111111        1.178451111111       -0.909636666667
 H          1.129561111111       -1.435638888889        0.005753333333
 H         -1.246988888889       -1.334908888889        0.005773333333
 O         -2.326308888889        0.334731111111       -0.000956666667
 O          2.346281111111        0.136681111111       -0.001006666667
9
Frame 1
 C         -1.315970268622       -0.158784341923        0.052672556489
 C          0.111418146372        0.497423478398        0.000541638740
 C          1.322450572386       -0.351980464995        0.005808761800
 H         -0.080580362467        1.146613658667        0.980693416611
 H         -0.112349519973        1.132358719825       -0.974343517383
 H          1.078641412357       -1.432585615941       -0.079438431374
 H         -1.078710000140       -1.288801572315        0.077606886635
 O         -2.391253723742        0.391891204482       -0.090542567609
 O          2.466353743829        0.063864933802        0.027001256092
9
Frame 2
 C         -1.378003365851       -0.076031718690        0.088526713035
 C          0.195624308217        0.442120706318        0.001231064036
 C          1.416714561534       -0.362969740764        0.027270958189
 H         -0.213280505835        1.141530600970        0.998169695249
 H         -0.261003359094        1.102492306780       -0.982644718146
 H          1.049226700083       -1.411619884317       -0.213564448415
 H         -0.936392803455       -1.225566511915        0.181344279387
 O         -2.456673503740        0.418210620194       -0.173097874306
 O          2.583787968141       -0.028166378575        0.072764330972
9
Frame 3
 C         -1.438085673540       -0.004613181248        0.088401910685
 C          0.278648449238        0.381526467573        0.000614919342
 C          1.509498070369       -0.384723662994        0.028251954008
 H         -0.349697193359        1.146681361531        0.983630009046
 H         -0.387532372132        1.141558471640       -0.924184858436
 H          1.029323334839       -1.388688051374       -0.317255610937
 H         -0.813834587764       -1.152433716972        0.324741809939
 O         -2.524489464085        0.400402091000       -0.272761985223
 O          2.696169436435       -0.139709779157        0.088561851575
9
Frame 4
 C         -1.499164037120        0.058342937910        0.073910970919
 C          0.362838182761        0.328268809851        0.004980050102
 C          1.598522047807       -0.410807848964        0.022391367061
 H         -0.492678883020        1.158999745303        0.963026360366
 H         -0.498748669835        1.200162228726       -0.842282164961
 H          1.012771016447       -1.358896573530       -0.410224301473
 H         -0.697176556533       -1.063293152211        0.478993147308
 O         -2.586600026730        0.354866588745       -0.377836543357
 O          2.800236926223       -0.267642735832        0.087041114035
9
Frame 5
 C         -1.564117474126        0.118279850427        0.056123845379
 C          0.453986593722        0.289780495989        0.008485620418
 C          1.688790871260       -0.433466282232        0.002895159683
 H         -0.645373433478        1.166764216575        0.962871223808
 H         -0.613483501255        1.256095262145       -0.773929132647
 H          0.995839077855       -1.322988979090       -0.481585182371
 H         -0.571471603745       -0.959864153454        0.616408535712
 O         -2.640512419718        0.300747776615       -0.476192442412
 O          2.896341889485       -0.415348186975        0.084922372431
9
Frame 6
 C         -1.635398907851        0.176367633110        0.033687476281
 C          0.561288526963        0.244637369431        0.058947364136
 C          1.788040982256       -0.475684376568        0.023446887263
 H         -0.843332466927        1.212431184134        0.958836661385
 H         -0.716402579072        1.282466380853       -0.738335470831
 H          0.999323394184       -1.271892766736       -0.555218254616
 H         -0.446840348274       -0.888303513247        0.712715012144
 O         -2.701738973981        0.276697023135       -0.539691071636
 O          2.995060372702       -0.556718934113        0.045611395873
9
Frame 7
 C         -1.724156484175        0.257514855778        0.018730214110
 C          0.687114924120        0.189784525523        0.039297994311
 C          1.906105558322       -0.527822686529        0.005812555325
 H         -1.071910773496        1.264991938013        0.984114110750
 H         -0.878412965445        1.382756013248       -0.679581562766
 H          1.025068855199       -1.267400692012       -0.593778986473
 H         -0.284335248593       -0.800279824151        0.804435055115
 O         -2.757398185687        0.225876692670       -0.620325124420
 O          3.097924319755       -0.725420822540        0.041295744047
9
Frame 8
 C         -1.836438177899        0.395796160652        0.028433636772
 C          0.845257495140        0.070202735451       -0.013008404372
 C          2.069718062603       -0.622896093043       -0.011581909047
 H         -1.447775618342        1.445987751384        1.023026067102
 H         -1.115708416313        1.557740804161       -0.622415723895
 H          1.126886759509       -1.331247888527       -0.638454605330
 H         -0.076537216867       -0.787423639697        0.845852404032
 O         -2.809447518301        0.170385429211       -0.667881650326
 O          3.244044630472       -0.898545259592        0.056030185064
9
Frame 9
 C         -1.976350923398        0.664593024221        0.049113420643
 C          1.062117462072       -0.208968096792       -0.052691226163
 C          2.324011499266       -0.814355472851        0.016691221995
 H         -2.037100942208        1.748359772043        1.006787916830
 H         -1.602168741340        1.924005451369       -0.609481570640
 H          1.390015738268       -1.518196028186       -0.710496000991
 H          0.191354123562       -0.948589635091        0.878539007103
 O         -2.864522701491        0.181091460036       -0.631517232275
 O          3.512644485269       -1.027940474748        0.053054463497
9
Frame 10
 C         -2.348133385851        1.074494575369       -0.026098567879
 C          1.397617020487       -0.553744334215        0.069743575778
 C          2.701111185459       -1.037426398340       -0.016879430022
 H         -2.682333017028        1.985820545491        0.977996687471
 H         -2.330265135367        2.371851351743       -0.619924980761
 H          1.679492789514       -1.730195331278       -0.720914667732
 H          0.770082706966       -1.251390878225        1.140100913172
 O         -3.076845403564        0.380958053325       -0.741602680292
 O          3.889273239384       -1.240367583869       -0.062420849736
9
Frame 11
 C         -2.824647464308        1.525413712299       -0.077171921928
 C          1.850054907612       -0.834615590660        0.175508065315
 C          3.130302803507       -1.311379434440       -0.018295147319
 H         -3.360112605836        2.235061759765        0.967386804580
 H         -3.061933406920        2.715653575887       -0.718829342868
 H          1.996175214569       -1.812251945356       -0.804576585069
 H          1.304375430307       -1.492834982871        1.247115721291
 O         -3.329067920946        0.592818411105       -0.709645373801
 O          4.294853042015       -1.617865505728       -0.061492220200
9
Frame 12
 C         -3.204012064910        1.835399452669       -0.092885941481
 C          2.224121240879       -0.971541942145        0.190763733191
 C          3.437090621668       -1.575182416917       -0.011393091397
 H         -3.848301663636        2.267883309895        0.965760127828
 H         -3.622996960614        2.926761408330       -0.719283498383
 H          2.173550812468       -1.880044669117       -0.798499992721
 H          1.671353684071       -1.428123009431        1.307214511277
 O         -3.389630045377        0.833280998509       -0.771740960692
 O          4.558824375451       -2.008433131793       -0.069934887621
9
Frame 13
 C         -3.303394181548        1.941646364238       -0.117732570617
 C          2.316215367810       -1.001587359609        0.210717581620
 C          3.486096595597       -1.668489152998        0.019283230693
 H         -3.857353484677        2.234223291529        0.989736066765
 H         -3.821292542642        2.905351964988       -0.789178135971
 H          2.181573219156       -1.721795297980       -0.862625980984
 H          1.718230573744       -1.388280540045        1.281226854410
 O         -3.296951936541        0.871866861552       -0.700285507311
 O          4.576876389102       -2.172936131675       -0.031141538605
9
Frame 14
 C         -3.375277571992        1.994579745079       -0.120594751791
 C          2.369712899000       -1.020322931648        0.212424723072
 C          3.494530779682       -1.746709851336        0.035794871003
 H         -3.869764694198        2.173738190940        0.997505793486
 H         -3.934643793494        2.857136982316       -0.823387826752
 H          2.155660785402       -1.583718568412       -0.891849932217
 H          1.763361151306       -1.294749073541        1.267179674490
 O         -3.159647390270        0.928369678955       -0.668424479761
 O          4.556067834565       -2.308324172352       -0.008648071530
9
Frame 15
 C         -3.463153164614        2.028505981200       -0.123216806281
 C          2.417253434030       -1.051197158364        0.209073578934
 C          3.502387726481       -1.822963917848        0.050057958504
 H         -3.878375851343        2.139689645555        0.999817922225
 H         -4.038482356812        2.800273969181       -0.857127933491
 H          2.146126961961       -1.446301495494       -0.911858622708
 H          1.812404358921       -1.223579610334        1.243801376709
 O         -3.037874669275        1.002368489490       -0.628763334504
 O          4.539713560651       -2.426795903387        0.018215860612
9
Frame 16
 C         -3.677398520136        2.140706151623       -0.111902113285
 C          2.569575481047       -1.168180201386        0.194926055433
 C          3.634452106258       -1.955352949132        0.053761907817
 H         -4.182759192176        2.240130962467        0.942363074927
 H         -4.188670321667        2.807539871767       -0.935185761152
 H          2.264951971802       -1.379243379326       -0.927889132600
 H          1.980619951380       -1.254574590565        1.209886253012
 O         -3.060135219850        1.147738329020       -0.468626832541
 O          4.659363743342       -2.578764194467        0.042666548387
9
Frame 17
 C         -4.189466795259        2.407448386891       -0.107283743235
 C          2.951099565883       -1.421917585637        0.143983538197
 C          4.001568626283       -2.224277664157        0.095159874163
 H         -4.742654013050        2.443775683767        0.891475438358
 H         -4.699277357625        2.953738956239       -0.976107227424
 H          2.647938079181       -1.491861120993       -0.961411746880
 H          2.368470797320       -1.356326594545        1.126537257922
 O         -3.344255382937        1.564074944330       -0.367849398392
 O          5.006576480204       -2.874655005895        0.155496007291
9
Frame 18
 C         -4.437323920597        2.503039777041       -0.118337733650
 C          3.109414862958       -1.581596259261        0.119623980677
 C          4.184971962755       -2.335270156925        0.089115196909
 H         -5.043996156364        2.583353313596        0.811040521626
 H         -4.819121635915        2.990222143126       -1.044505165590
 H          2.737651958533       -1.477089335218       -0.928998640886
 H          2.568764735339       -1.436977782865        1.082181121964
 O         -3.485799995860        1.741897255446       -0.186794797368
 O          5.185438189150       -2.987578954941        0.176675516318
9
Frame 19
 C         -4.887847740520        2.707328313311       -0.140725805456
 C          3.421961303878       -1.870273373669        0.086847260611
 C          4.538777252470       -2.543243210366        0.146486512506
 H         -5.488882405793        2.808142250915        0.756233987972
 H         -5.228355317997        3.143318266921       -1.073435256159
 H          3.015976551151       -1.576800192473       -0.874925295595
 H          2.895128420781       -1.611900171099        0.998754747685
 O         -3.829029853121        2.103693597349       -0.100541270995
 O          5.562271789150       -3.160265480888        0.201305119431
