9
Frame 0
 C         -1.254648888889       -0.248998888889        0.001273333333
 C          0.022801111111        0.537981111111       -0.002236666667
 C          1.229081111111       -0.354268888889        0.001243333333
 H          0.050281111111        1.185971111111        0.899793333333
 H          0.049941111111        1.178451111111       -0.909636666667
 H          1.129561111111       -1.435638888889        0.005753333333
 H         -1.246988888889       -1.334908888889        0.005773333333
 O         -2.326308888889        0.334731111111       -0.000956666667
 O          2.346281111111        0.136681111111       -0.001006666667
9
Frame 1
 C         -1.178803483003       -0.291426727298       -0.122969947583
 C          0.004258032397        0.601934598738       -0.055160786353
 C          1.240325797260       -0.281066159461        0.115685164932
 H          0.118380328305        1.180831101592        0.922532190513
 H         -0.036831750245        1.088580595189       -1.081499024335
 H          0.997401200391       -1.379880598145        0.006986946557
 H         -1.324568471272       -1.392812584302       -0.139749582426
 O         -2.203881059631        0.333820419679        0.248874212161
 O          2.383719405799        0.140019354009        0.105300826533
9
Frame 2
 C         -1.116884785889       -0.318032676175       -0.202024229705
 C         -0.017043503377        0.653534466126       -0.114213457110
 C          1.230119498995       -0.218995887949        0.226984191356
 H          0.198323235122        1.241863735438        0.879750801050
 H         -0.116759216087        0.973694010658       -1.228923560833
 H          0.890768338074       -1.313927097262       -0.043221260296
 H         -1.439313038385       -1.407559684458       -0.313524490452
 O         -2.024187345287        0.258880053852        0.521106728076
 O          2.394976816834        0.130543079769        0.274065277914
9
Frame 3
 C         -1.065582835917       -0.343973247846       -0.275759485333
 C         -0.042296329448        0.690335971356       -0.171384122639
 C          1.209618256170       -0.163143057101        0.321448706339
 H          0.271366563241        1.302571219411        0.824984701943
 H         -0.193121199288        0.876019543070       -1.340690366086
 H          0.817067825647       -1.245971784750       -0.109452290463
 H         -1.581990144329       -1.379041280126       -0.427391422747
 O         -1.800816247632        0.144689334303        0.728454051281
 O          2.385754111556        0.118513301682        0.449790227704
9
Frame 4
 C         -1.011798827164       -0.386238069729       -0.331506074192
 C         -0.076065562105        0.711299724259       -0.217186957185
 C          1.196666992004       -0.102012029038        0.394600489748
 H          0.337451300203        1.354714921248        0.769268382934
 H         -0.266053315086        0.769516156780       -1.425575275570
 H          0.785319724734       -1.179778952753       -0.174516155324
 H         -1.774468296515       -1.292582252525       -0.512433601258
 O         -1.560371035954        0.006215433947        0.872053401232
 O          2.369319019883        0.118865067811        0.625295789616
9
Frame 5
 C         -0.949069291475       -0.455733331444       -0.380877329568
 C         -0.122132846521        0.710620955335       -0.249647801450
 C          1.195703504184       -0.038470773801        0.444076206276
 H          0.383533542813        1.384478932486        0.725072978882
 H         -0.338500870848        0.657269100933       -1.487345104316
 H          0.789439732922       -1.121461146276       -0.248899769389
 H         -1.961431466019       -1.139276531322       -0.544565747718
 O         -1.344292386608       -0.124947953500        0.947093327257
 O          2.346750081551        0.127520747589        0.795093240025
9
Frame 6
 C         -0.884174106452       -0.542191896634       -0.431057085811
 C         -0.183045395459        0.688572363569       -0.273675512190
 C          1.196085901752        0.022922093604        0.477499328952
 H          0.407473898729        1.397235445420        0.686804538193
 H         -0.412631329898        0.539458900540       -1.537326182051
 H          0.807369701983       -1.071181604560       -0.333163416435
 H         -2.084424952198       -0.924818259066       -0.530320536481
 O         -1.152444194703       -0.245392575526        0.983805429163
 O          2.305790476244        0.135395532653        0.957433436660
9
Frame 7
 C         -0.825798245472       -0.631885850981       -0.480794558973
 C         -0.256337003949        0.649276930643       -0.286206430556
 C          1.189120475532        0.078014912316        0.507360748455
 H          0.412197031778        1.398993772399        0.657323027883
 H         -0.480684611215        0.418352006861       -1.577175601169
 H          0.818260942645       -1.032991340619       -0.415067057652
 H         -2.123444342574       -0.675713317120       -0.495842260478
 O         -0.986202030074       -0.351301006374        1.002013137686
 O          2.252887783329        0.147253892877        1.088388994802
9
Frame 8
 C         -0.783961907025       -0.700082521170       -0.532413951215
 C         -0.328693909713        0.608664058802       -0.289344112288
 C          1.173277907036        0.121668720638        0.542253039267
 H          0.416260894476        1.396971177817        0.639153156267
 H         -0.535592496039        0.313980475399       -1.611408697070
 H          0.806574869277       -1.006236366668       -0.493003955491
 H         -2.098534088508       -0.469895966261       -0.450993774546
 O         -0.849880429147       -0.423036724086        1.007656930211
 O          2.200549159642        0.157967145530        1.188101364866
9
Frame 9
 C         -0.755258938711       -0.744565713498       -0.586376576392
 C         -0.391868601241        0.573067407889       -0.287422585283
 C          1.156398371368        0.156801784143        0.584553197629
 H          0.430767665700        1.396686259779        0.629337555320
 H         -0.580624821044        0.231287035053       -1.645123125714
 H          0.778656253561       -0.991192594253       -0.566530824728
 H         -2.058716378734       -0.327343211450       -0.404896859099
 O         -0.737003512984       -0.462613517682        1.005217514825
 O          2.157649962085        0.167872550020        1.271241703442
9
Frame 10
 C         -0.733576981866       -0.774614815943       -0.641982355166
 C         -0.445477356053        0.538502592201       -0.282527739381
 C          1.142675834140        0.188712130776        0.633025608990
 H          0.454107124561        1.398686738918        0.625610149046
 H         -0.625177051580        0.163048002393       -1.680080982476
 H          0.743450341602       -0.988602008137       -0.638093268247
 H         -2.022088866736       -0.223296151684       -0.362925364524
 O         -0.637792545163       -0.483266767728        0.998402046680
 O          2.123879501093        0.180830279204        1.348571905078
9
Frame 11
 C         -0.716442268181       -0.796186547639       -0.700009602655
 C         -0.489313128231        0.501664378274       -0.276757188096
 C          1.133484438796        0.221657498506        0.687038669332
 H          0.482821936252        1.403305592869        0.628904027220
 H         -0.676031516242        0.102860618593       -1.718130658491
 H          0.704390953597       -0.999914144576       -0.711144724720
 H         -1.990616202052       -0.138623358579       -0.324649427867
 O         -0.544877379097       -0.493669991879        0.987832749848
 O          2.096583165158        0.198905954431        1.426916155429
9
Frame 12
 C         -0.701977074482       -0.812984708317       -0.761975415060
 C         -0.521410918537        0.460256966213       -0.272434362637
 C          1.129323164971        0.259194026005        0.747781469385
 H          0.516290068379        1.412658396598        0.639202744490
 H         -0.743530804367        0.046014571582       -1.759934810308
 H          0.663131349366       -1.026542930237       -0.790727068699
 H         -1.960870063820       -0.061965442108       -0.288538541569
 O         -0.452230348049       -0.498739174886        0.972352632886
 O          2.071274626537        0.222108295150        1.514273351513
9
Frame 13
 C         -0.691355717880       -0.827556179922       -0.830079295142
 C         -0.538291813800        0.412124187918       -0.272479375834
 C          1.129410083452        0.305158457935        0.817104646209
 H          0.549729841577        1.428690001448        0.663587022468
 H         -0.831714786169       -0.013031757629       -1.805306745759
 H          0.616399957510       -1.074303522058       -0.881933764425
 H         -1.927022032816        0.018373472384       -0.253063181420
 O         -0.353113535737       -0.503145426330        0.948775920405
 O          2.045958003863        0.253690766254        1.613394773498
9
Frame 14
 C         -0.687844078803       -0.842869153642       -0.906754366306
 C         -0.533088846619        0.354683058791       -0.281928771982
 C          1.131725492261        0.364929400106        0.897865537027
 H          0.573306345488        1.454869399845        0.714436840678
 H         -0.944353341221       -0.080396572930       -1.852363064181
 H          0.555598772324       -1.153676436569       -0.992519245147
 H         -1.876879116208        0.116002525860       -0.216323329275
 O         -0.236530291934       -0.511378907947        0.910694387862
 O          2.018065064712        0.297836686486        1.726892011323
9
Frame 15
 C         -0.696556073869       -0.862823434717       -0.992311609481
 C         -0.495374661974        0.285362034514       -0.308658794149
 C          1.130681526634        0.444359270876        0.993412575823
 H          0.566441260290        1.493152162174        0.810520846811
 H         -1.083648566967       -0.162413620031       -1.895391762862
 H          0.463612171041       -1.277809938916       -1.130536020762
 H         -1.785956383268        0.247255220347       -0.178812834133
 O         -0.083810644557       -0.525456200746        0.847277147293
 O          1.984611372670        0.358374506500        1.854500451461
9
Frame 16
 C         -0.715618174001       -0.886948419382       -1.078254299494
 C         -0.431217719465        0.208587310901       -0.353395432585
 C          1.114725250087        0.536143508285        1.098759206595
 H          0.511895435480        1.532529303228        0.958250812215
 H         -1.239102310705       -0.263609943836       -1.923728456845
 H          0.331602963787       -1.431680650665       -1.280841845629
 H         -1.634078496246        0.410744206691       -0.152608554680
 O          0.115284639975       -0.530523643526        0.752932345576
 O          1.946508411088        0.424758328304        1.978886224846
9
Frame 17
 C         -0.731447656655       -0.907534157533       -1.158426130518
 C         -0.378771809689        0.137616139193       -0.399458583273
 C          1.076614865250        0.613954597384        1.204002391450
 H          0.438047337171        1.559640117358        1.133307675703
 H         -1.393196631716       -0.390177802440       -1.934312930576
 H          0.188606533669       -1.568180561999       -1.406246484305
 H         -1.448580212347        0.576991737908       -0.153383107162
 O          0.336582439974       -0.493722035484        0.636880860988
 O          1.912145134344        0.471411965614        2.077636307694
9
Frame 18
 C         -0.730268379309       -0.909620039576       -1.244813133775
 C         -0.375404152517        0.074747243437       -0.417036845529
 C          1.016369104396        0.662503042588        1.308988591845
 H          0.332423547146        1.538340051462        1.399459834215
 H         -1.508106712302       -0.548483182321       -1.957974747377
 H          0.049306710014       -1.691643650342       -1.448081424317
 H         -1.262047115295        0.757702323379       -0.233931317809
 O          0.527153423560       -0.381700286140        0.518696585615
 O          1.950573574305        0.498154497513        2.074692457131
9
Frame 19
 C         -0.709553008395       -0.887847710759       -1.348388616233
 C         -0.440443266175       -0.004456375651       -0.388165316423
 C          0.958132068811        0.683022137986        1.397229929918
 H          0.350928555464        1.563477959655        1.590022554176
 H         -1.574062764576       -0.749689677499       -1.989672815488
 H         -0.069910342624       -1.751964464926       -1.499447030744
 H         -1.095967572144        0.853341740208       -0.256159348330
 O          0.638139333407       -0.180949245349        0.408530194625
 O          1.942736996232        0.475065636336        2.086050448500
