7
Frame 0
 C         -0.577744285714       -0.285430000000        0.001762857143
 C          0.748065714286        0.403740000000        0.005312857143
 H         -1.239784285714        0.192880000000       -0.749497142857
 H         -1.041574285714       -0.197480000000        1.006052857143
 H         -0.462374285714       -1.361280000000       -0.250487142857
 H          0.804205714286        1.462700000000        0.234442857143
 O          1.769205714286       -0.215130000000       -0.247587142857
7
Frame 1
 C         -0.545279439560       -0.387834354883       -0.086849582590
 C          0.712947061037        0.447279210136        0.093094042919
 H         -1.167309208429        0.439331821486       -0.670148912801
 H         -1.097459540290       -0.239824317967        0.903779600365
 H         -0.379102640569       -1.526604494581       -0.102725137653
 H          0.787401407702        1.526255592612        0.185596189806
 O          1.688802360109       -0.258603456804       -0.322746200047
7
Frame 2
 C         -0.507327747126       -0.460986943616       -0.209680450193
 C          0.677755461891        0.476028833989        0.168329443368
 H         -1.101044996448        0.626179601353       -0.531045149518
 H         -1.133186700510       -0.289798874279        0.776624973719
 H         -0.319487852014       -1.612608479593        0.038371502842
 H          0.758488994325        1.559725962437        0.119381562057
 O          1.624802839883       -0.298540100291       -0.361981882275
7
Frame 3
 C         -0.470761723575       -0.512271427197       -0.348806813058
 C          0.636992662750        0.484044149689        0.233045052057
 H         -1.045257932282        0.749823839688       -0.381629757299
 H         -1.166260311081       -0.328007449232        0.637235882164
 H         -0.253089940342       -1.615262616317        0.191785878078
 H          0.730981145104        1.559543412698        0.077838489563
 O          1.567396099426       -0.337869909329       -0.409468731505
7
Frame 4
 C         -0.422649162011       -0.565562501025       -0.473527860618
 C          0.596789274441        0.478577381810        0.290288060575
 H         -0.999157790792        0.818882808070       -0.247558677800
 H         -1.191332974203       -0.348758498457        0.505676756181
 H         -0.210597069828       -1.558634187279        0.334692930445
 H          0.702837289929        1.542959999940        0.061311390001
 O          1.524110432464       -0.367465003060       -0.470882598783
7
Frame 5
 C         -0.363951176074       -0.629476188652       -0.583286516613
 C          0.552932282196        0.466849075586        0.334785657211
 H         -0.970790196980        0.863598783616       -0.117083028383
 H         -1.208893383173       -0.357001185546        0.379826524038
 H         -0.183210529067       -1.469451230480        0.462674180696
 H          0.680139436007        1.520480642649        0.058003748438
 O          1.493773567091       -0.394999897173       -0.534920565387
7
Frame 6
 C         -0.288724766195       -0.708199393449       -0.680942093746
 C          0.505797988577        0.458442157787        0.363860771956
 H         -0.967044884954        0.899705603347        0.043278002347
 H         -1.214148508294       -0.354038075387        0.250369649899
 H         -0.176876541676       -1.364737249869        0.566623870401
 H          0.658954035329        1.499204692102        0.043888211433
 O          1.482042677213       -0.430377734530       -0.587078412290
7
Frame 7
 C         -0.189840680983       -0.810586712577       -0.768535264538
 C          0.454722243672        0.457673234934        0.370126437416
 H         -0.983462309576        0.921794375959        0.277224145247
 H         -1.201286915633       -0.319733404829        0.094764879656
 H         -0.198213051658       -1.249507987762        0.647371165949
 H          0.623452756097        1.482924680630        0.002663320225
 O          1.494627958081       -0.482564186356       -0.623614683955
7
Frame 8
 C         -0.082556408697       -0.933180823064       -0.827926991078
 C          0.405214292469        0.466164320040        0.363723777098
 H         -0.985697421285        0.875588552017        0.548625348677
 H         -1.154675948793       -0.224839532366       -0.080230244275
 H         -0.256337919349       -1.117022791022        0.706605118232
 H          0.557184111116        1.477228804752       -0.049798398873
 O          1.516869294539       -0.543938530357       -0.660998609782
7
Frame 9
 C         -0.002151964310       -1.047099880191       -0.853535857686
 C          0.355688508798        0.482751534349        0.378019373329
 H         -0.982169089329        0.793445979280        0.712970580815
 H         -1.087967811277       -0.119370865415       -0.204222128168
 H         -0.306239317801       -0.994414220655        0.750932408317
 H          0.503242493832        1.483078193334       -0.061460810650
 O          1.519597180087       -0.598390740703       -0.722703565956
7
Frame 10
 C          0.064687652000       -1.154850819543       -0.873230215728
 C          0.292050654037        0.500732827525        0.404747295020
 H         -1.003550794792        0.763286206294        0.784004469169
 H         -1.030229672287       -0.054487631975       -0.271310923038
 H         -0.320161097324       -0.905739661589        0.789065265619
 H          0.487867315115        1.497626636886       -0.025350726926
 O          1.509335943251       -0.646567557599       -0.807925164116
7
Frame 11
 C          0.132942838937       -1.252963454660       -0.906865195704
 C          0.217514824359        0.526013639163        0.432741541277
 H         -1.038225814934        0.760501649969        0.835223998158
 H         -0.987480604606       -0.005236885082       -0.309260296161
 H         -0.313624997793       -0.833217924127        0.820097385464
 H          0.482204945606        1.515078715025        0.020176991382
 O          1.506668808431       -0.710175740288       -0.892114424417
7
Frame 12
 C          0.207903850369       -1.347457627488       -0.957659308148
 C          0.133921992743        0.558581074430        0.461212690692
 H         -1.081162279082        0.774652552526        0.886549796152
 H         -0.959582052073        0.041702667036       -0.329675926311
 H         -0.296727721664       -0.765156697060        0.848357604559
 H          0.473861546285        1.533620200965        0.069345720779
 O          1.521784663422       -0.795942170409       -0.978130577722
7
Frame 13
 C          0.296238350305       -1.449269610393       -1.024895355015
 C          0.040331711392        0.598535617701        0.491990490904
 H         -1.132250918923        0.805284500221        0.942951630436
 H         -0.946090375458        0.092899859935       -0.338065104066
 H         -0.276411313731       -0.693097894126        0.879582956301
 H          0.457400085794        1.555238331219        0.128889710945
 O          1.560782460621       -0.909590804556       -1.080454329505
7
Frame 14
 C          0.407346978278       -1.567209968688       -1.117475585244
 C         -0.064946062691        0.647995503069        0.531319127922
 H         -1.191680846846        0.856008226672        1.012174528849
 H         -0.948517843171        0.159375083975       -0.333758136223
 H         -0.257844391171       -0.610086784253        0.918148184062
 H          0.417687392088        1.587081635642        0.203445905026
 O          1.637954773513       -1.073163696417       -1.213854024392
7
Frame 15
 C          0.570861989620       -1.718378779111       -1.254520893717
 C         -0.196535010435        0.717013973735        0.583080991740
 H         -1.265780680491        0.942120454036        1.110591401455
 H         -0.990321249607        0.251224365961       -0.304619307374
 H         -0.254683473267       -0.499811031254        0.974193655396
 H          0.347677133753        1.640128377531        0.308762211674
 O          1.788781290427       -1.332297360898       -1.417488059174
7
Frame 16
 C          0.977868689450       -1.902382892285       -1.451187622215
 C         -0.414903825128        0.815218984664        0.695263229205
 H         -1.360269127578        1.193835970227        1.302639166757
 H         -1.198953370967        0.419863269046       -0.168476561743
 H         -0.423021256770       -0.341878761327        1.118868465759
 H          0.269138802057        1.634834557240        0.403111743115
 O          2.150140088935       -1.819491127565       -1.900218420878
7
Frame 17
 C          1.907531165589       -2.618308936151       -2.322081989780
 C         -0.826316850887        1.154639692874        1.024621338602
 H         -1.641541625201        1.653473192096        1.680603459247
 H         -1.599836123335        0.811259419471        0.190879434939
 H         -0.758053166583        0.082277607998        1.532130637851
 H         -0.053738151507        1.884457068078        0.713075319908
 O          2.971954751924       -2.967798044367       -2.819228200768
7
Frame 18
 C          2.841123657551       -3.383020144538       -3.086458553044
 C         -1.223535205992        1.486344914395        1.357300593133
 H         -1.941590785003        2.076444721113        2.006485521966
 H         -1.905436182192        1.169461286955        0.490684406125
 H         -1.050956864160        0.493399843002        1.905925864427
 H         -0.366720665623        2.114601042718        1.041762842881
 O          3.647116045420       -3.957231663645       -3.715700675489
7
Frame 19
 C          3.558738825220       -4.039994930754       -3.783236179362
 C         -1.557947771612        1.752700467786        1.632218665001
 H         -2.162882982500        2.433254995382        2.265990931352
 H         -2.147171142944        1.457088879720        0.739913479441
 H         -1.288659648293        0.847340899578        2.214101506039
 H         -0.633074343983        2.273103241761        1.308851444793
 O          4.230997064112       -4.723493553472       -4.377839847266
