7
Frame 0
 C         -0.577744285714       -0.285430000000        0.001762857143
 C          0.748065714286        0.403740000000        0.005312857143
 H         -1.239784285714        0.192880000000       -0.749497142857
 H         -1.041574285714       -0.197480000000        1.006052857143
 H         -0.462374285714       -1.361280000000       -0.250487142857
 H          0.804205714286        1.462700000000        0.234442857143
 O          1.769205714286       -0.215130000000       -0.247587142857
7
Frame 1
 C         -0.622482744320       -0.274530219600        0.010700393478
 C          0.694920707756        0.389449311180       -0.102611385608
 H         -1.333852986023        0.153463257038       -0.724060934130
 H         -1.029070438286       -0.160636077105        1.035550156431
 H         -0.370557155060       -1.332847148907       -0.323412876305
 H          0.893878968667        1.424659107043        0.246120924508
 O          1.767163647266       -0.199558229650       -0.142286278375
7
Frame 2
 C         -0.650183827718       -0.269247275281        0.022273054549
 C          0.658774047536        0.363854517117       -0.187139078686
 H         -1.401794275580        0.115573201122       -0.693880378262
 H         -1.011288803490       -0.109031753823        1.056440295995
 H         -0.298430530258       -1.299570612327       -0.397253616415
 H          0.946848037829        1.373240547438        0.253585306465
 O          1.756075351680       -0.174818624246       -0.054025583645
7
Frame 3
 C         -0.667717757366       -0.269497146672        0.039018349387
 C          0.632244094979        0.332484007504       -0.241350053923
 H         -1.448456230878        0.073474306268       -0.664971410676
 H         -1.002648770098       -0.049136996568        1.069664536780
 H         -0.241971560589       -1.265494158963       -0.469669333684
 H          0.985076975916        1.326461227999        0.261070689517
 O          1.743473248037       -0.148291239567        0.006237222599
7
Frame 4
 C         -0.680455935257       -0.270444584321        0.056053464034
 C          0.610225098487        0.301459866856       -0.279211907339
 H         -1.483908191000        0.030350552398       -0.639584758613
 H         -0.999383719167        0.009879079360        1.076028939217
 H         -0.195480398911       -1.233396784548       -0.532595804297
 H          1.017775694983        1.285470155716        0.272827536410
 O          1.731227450865       -0.123318285460        0.046482530587
7
Frame 5
 C         -0.690418250341       -0.270482170580        0.072465246407
 C          0.590729417554        0.272246501755       -0.308039875934
 H         -1.512842765492       -0.013755286558       -0.616554700147
 H         -0.998740351128        0.067161328080        1.077094882879
 H         -0.155891450772       -1.203549247371       -0.587810840237
 H          1.047469857781        1.249045036473        0.289086869313
 O          1.719693542397       -0.100666161799        0.073758417720
7
Frame 6
 C         -0.698621951111       -0.269136655587        0.088491091673
 C          0.572588880674        0.245199638401       -0.331129079426
 H         -1.537325444907       -0.059608246734       -0.594751079293
 H         -1.000273337006        0.123828450112        1.073692040757
 H         -0.121038931821       -1.175746325950       -0.637525839131
 H          1.075551721753        1.215742936926        0.310163479832
 O          1.709119062418       -0.080279797167        0.091059385589
7
Frame 7
 C         -0.705872921677       -0.265923065706        0.104086109840
 C          0.555224708129        0.219943902467       -0.350307213099
 H         -1.558492809378       -0.107015887273       -0.573424325441
 H         -1.003211869775        0.179431622971        1.066857730106
 H         -0.089844844223       -1.149671043910       -0.683562886741
 H          1.102896698960        1.185046881397        0.334692548990
 O          1.699301037965       -0.061812409946        0.101658036345
7
Frame 8
 C         -0.713179783295       -0.260228549916        0.118168904057
 C          0.538456944927        0.195206445342       -0.367099486591
 H         -1.577125578378       -0.152328294617       -0.552836406764
 H         -1.005809673259        0.230439990902        1.058829498514
 H         -0.061197491814       -1.126383439334       -0.726051640687
 H          1.129477153899        1.157796343988        0.359260167788
 O          1.689378427920       -0.044502496364        0.109728963682
7
Frame 9
 C         -0.720810596830       -0.252405382854        0.130801327284
 C          0.522030104793        0.170127396234       -0.382283698757
 H         -1.593628823729       -0.194758157110       -0.532696550100
 H         -1.007718227863        0.277289418845        1.050436538003
 H         -0.034132432487       -1.106282162720       -0.766228144651
 H          1.155233910234        1.133791223342        0.383538191613
 O          1.679026065883       -0.027762335737        0.116432336609
7
Frame 10
 C         -0.729030286867       -0.242259144763        0.141931763755
 C          0.505668419721        0.144381558086       -0.396319990022
 H         -1.608679113433       -0.235219082477       -0.512745896406
 H         -1.008691528432        0.321298515880        1.041985972098
 H         -0.007789270273       -1.089267297965       -0.805039957069
 H          1.180446724710        1.112338600663        0.408448330332
 O          1.668075054574       -0.011273149425        0.121739777312
7
Frame 11
 C         -0.737820651763       -0.229902329266        0.151926839246
 C          0.489070552314        0.117784062028       -0.409422327481
 H         -1.622568216733       -0.275406246375       -0.492018576968
 H         -1.009090742486        0.364667083749        1.032834332312
 H          0.018404538798       -1.074748111362       -0.843891410788
 H          1.205466928041        1.092363298434        0.435508621265
 O          1.656537591829        0.005242242793        0.125062522414
7
Frame 12
 C         -0.747150396520       -0.215364729360        0.161094902840
 C          0.471952596197        0.090115318292       -0.421710982419
 H         -1.635432089631       -0.317133088416       -0.469151066789
 H         -1.009344321797        0.409521144504        1.021907264663
 H          0.044884348248       -1.061915596310       -0.884244115012
 H          1.230699602180        1.072667410335        0.466231975539
 O          1.644390261322        0.022109540954        0.125872021179
7
Frame 13
 C         -0.757089312067       -0.198511881832        0.169540474912
 C          0.454050334651        0.060970968299       -0.433206063670
 H         -1.647279024881       -0.362078640062       -0.442456155555
 H         -1.009844852657        0.457640956329        1.007917569747
 H          0.072052768420       -1.049829544831       -0.927596604526
 H          1.256655892732        1.052036005380        0.501880460827
 O          1.631454193802        0.039772136718        0.123920318264
7
Frame 14
 C         -0.767791144499       -0.179044969668        0.177113817241
 C          0.435084473156        0.029678535348       -0.443929976400
 H         -1.657986098871       -0.411895990000       -0.409580381197
 H         -1.010908492086        0.510875728589        0.989048490570
 H          0.100466869887       -1.037431633142       -0.975543066494
 H          1.283728199088        1.028800360612        0.544026862804
 O          1.617406193323        0.059017968261        0.118864253476
7
Frame 15
 C         -0.781180911533       -0.156972775692        0.180402571120
 C          0.415037388177       -0.008623029108       -0.453850462784
 H         -1.670499332440       -0.452416577899       -0.376312265736
 H         -1.006801505302        0.558300875439        0.973335420271
 H          0.134301382327       -1.031699621527       -1.023280547991
 H          1.309047429771        1.007927593055        0.586605735420
 O          1.600095549001        0.083483535731        0.113099549701
7
Frame 16
 C         -0.798121057814       -0.131447605004        0.178043924289
 C          0.393669561899       -0.057110475389       -0.461507011336
 H         -1.687070751059       -0.480659212664       -0.344763231941
 H         -0.995626269396        0.597716955390        0.963817473348
 H          0.176192651278       -1.034453531473       -1.070032520314
 H          1.332824304718        0.990194850663        0.629536667088
 O          1.578131560374        0.115759018478        0.104904698867
7
Frame 17
 C         -0.818350341315       -0.100823816622        0.170119087192
 C          0.370478702731       -0.117876120214       -0.463562595182
 H         -1.707093406571       -0.505469020902       -0.308457779171
 H         -0.981695887810        0.637342022242        0.953270083744
 H          0.227060789685       -1.040346407521       -1.119402529724
 H          1.358978603912        0.967624316637        0.680503891851
 O          1.550621539369        0.159549026380        0.087529841291
7
Frame 18
 C         -0.842360535478       -0.068517282951        0.157744681128
 C          0.345464829663       -0.201461512082       -0.448917062946
 H         -1.732622187161       -0.522265111857       -0.268474564947
 H         -0.968361737113        0.674976152108        0.940936937682
 H          0.291555694744       -1.041670050907       -1.175027403486
 H          1.394867279401        0.942180719557        0.731307730918
 O          1.511456655943        0.216757086132        0.062429681651
7
Frame 19
 C         -0.871250734953       -0.029479960492        0.132257501678
 C          0.317381800078       -0.312190188029       -0.407571623520
 H         -1.766788856867       -0.516407488921       -0.239983341268
 H         -0.958880604488        0.685423812305        0.944486177179
 H          0.378644358385       -1.030552918262       -1.218654300725
 H          1.451027252400        0.925227573187        0.754788769240
 O          1.449866785446        0.277979170211        0.034676817415
