12
Frame 0
 C         -0.533781666667        0.259082500000       -0.100877500000
 C          0.730568333333       -0.596987500000       -0.052487500000
 C          1.961018333333        0.250882500000        0.081842500000
 H         -0.603311666667        0.847952500000        0.842602500000
 H         -0.469871666667        0.942342500000       -0.978817500000
 H          0.804588333333       -1.195807500000       -0.986057500000
 H          0.672308333333       -1.289237500000        0.815282500000
 H          1.889768333333        1.333432500000        0.132772500000
 H         -3.155061666667        0.088282500000        0.605582500000
 O         -2.704101666667        0.216612500000       -0.268297500000
 O         -1.652401666667       -0.580287500000       -0.226757500000
 O          3.060278333333       -0.276267500000        0.135212500000
12
Frame 1
 C         -0.535014416089        0.160477285210       -0.164752277343
 C          0.757743608338       -0.634558094256       -0.076813898909
 C          1.957823601644        0.239429482627        0.141422204353
 H         -0.759975023982        0.992445945206        0.692489698591
 H         -0.694646703967        0.958767418050       -1.080886490634
 H          0.900568439671       -1.213015775403       -1.015447982957
 H          0.718502370597       -1.382305081786        0.745191501339
 H          1.847313577257        1.305408449879        0.318159624834
 H         -2.885754632157        0.234484005174        0.789200050819
 O         -2.733580566240        0.270578191253       -0.306393454102
 O         -1.648353283715       -0.681434495076       -0.220370409589
 O          3.075373028642       -0.250277330878        0.178201433598
12
Frame 2
 C         -0.524913402510        0.101464959402       -0.249118768848
 C          0.778844774389       -0.659934294643       -0.096609479334
 C          1.957613738892        0.214597021682        0.215533401508
 H         -0.902905190148        1.178242150698        0.449776674505
 H         -0.954781145479        0.977729296049       -1.200100508209
 H          0.990630006511       -1.221943220704       -1.032528516215
 H          0.735850467979       -1.449688292942        0.685323394491
 H          1.824276696311        1.256997401171        0.490220794045
 H         -2.591339886488        0.229776042383        0.950488050207
 O         -2.764939393239        0.370500619067       -0.236926271783
 O         -1.631246912260       -0.740664819616       -0.237862090089
 O          3.082910246041       -0.257076862547        0.261803319723
12
Frame 3
 C         -0.512991344104        0.046191237338       -0.314085897986
 C          0.806547192908       -0.678990465335       -0.123790494110
 C          1.954481928291        0.187361175939        0.304831583987
 H         -1.049778394329        1.343164428011        0.185009514698
 H         -1.254856726930        0.935142989165       -1.327314241818
 H          1.084037618476       -1.187238242027       -1.073479422744
 H          0.772742666421       -1.533420841066        0.588004570020
 H          1.788871064544        1.184147604131        0.703722335409
 H         -2.272211591142        0.289611589420        1.067959888765
 O         -2.807682814927        0.476049361748       -0.164930077770
 O         -1.599436871278       -0.801820996553       -0.191991326964
 O          3.090277272071       -0.260197840771        0.346063568513
12
Frame 4
 C         -0.489279823751       -0.000025002404       -0.355447228994
 C          0.843031743773       -0.695385352921       -0.135581730619
 C          1.966448792412        0.154034156518        0.382873701487
 H         -1.233008708075        1.479431263089       -0.040649015232
 H         -1.581273639271        0.917127587555       -1.416313709080
 H          1.170762171782       -1.162792657708       -1.090494241317
 H          0.816623907568       -1.593721409822        0.521288850004
 H          1.780447070438        1.111798349346        0.861161842706
 H         -1.960153401474        0.316083349932        1.122506805109
 O         -2.870398553634        0.608544972773       -0.104107611155
 O         -1.550843473127       -0.854408043627       -0.174337480107
 O          3.107643913357       -0.280687212731        0.429099817200
12
Frame 5
 C         -0.442789399836       -0.031072111296       -0.305171377117
 C          0.907447860642       -0.707735310763       -0.134270151341
 C          2.020792131589        0.094223179175        0.473914724853
 H         -1.507458520393        1.624921232154       -0.297073478238
 H         -1.948168418839        0.843027120413       -1.507046681798
 H          1.250690690200       -1.075943810371       -1.126362274017
 H          0.914759393058       -1.676451805106        0.414842562189
 H          1.823623773034        0.967625929940        1.089920989363
 H         -1.715315213822        0.419790268820        1.127380094865
 O         -3.000958733450        0.753830166268       -0.114018647085
 O         -1.474502515084       -0.895621780854       -0.074547146120
 O          3.171878952900       -0.316593078380        0.452431384446
12
Frame 6
 C         -0.346453323818       -0.051789594513       -0.259035666530
 C          1.002559218003       -0.737722807104       -0.099990468228
 C          2.119944525599        0.025817633336        0.553055080332
 H         -1.872303212282        1.825928672054       -0.526100294578
 H         -2.391458194189        0.815457673185       -1.568246655260
 H          1.354040878264       -1.063334954276       -1.105118349423
 H          1.013508160704       -1.734461922479        0.397995229484
 H          1.925858364956        0.843587289487        1.244549261513
 H         -1.500003344022        0.408988807987        1.117543244270
 O         -3.205486132746        0.955909608824       -0.122354374535
 O         -1.376363423923       -0.918978067854       -0.114438393657
 O          3.276156483453       -0.369402338648        0.482141386610
12
Frame 7
 C         -0.178330602282        0.004815106147        0.023583132629
 C          1.141595842860       -0.757212051030        0.012961622098
 C          2.341071630255       -0.102820956309        0.639240635665
 H         -2.464549810991        1.995806532652       -0.972972920697
 H         -3.311610159603        1.267873450150       -2.042301346711
 H          1.407977792276       -1.003023165824       -1.041332817510
 H          1.140847385140       -1.797351375182        0.419211126321
 H          2.238883647992        0.641965064621        1.425014739708
 H         -1.070744291796        0.214612248295        1.536779133227
 O         -3.462355752006        0.869013960562       -0.468754717563
 O         -1.256270354976       -0.802012147600        0.023802150165
 O          3.473484673130       -0.531666666482        0.444769262667
12
Frame 8
 C          0.063606651125       -0.289415478914        0.295003432563
 C          1.428640050797       -0.942353732053        0.157824444717
 C          2.603563137089       -0.187067690751        0.709741991281
 H         -3.429379859051        2.530961577295       -1.304153778650
 H         -4.016889410459        1.728846800418       -2.471453705148
 H          1.630525904264       -1.144585887901       -0.918254761250
 H          1.531306663212       -1.980227901250        0.552361780765
 H          2.476381454353        0.626788584920        1.418871698395
 H         -0.575448138255       -0.164032927129        1.818435556463
 O         -4.509984443202        1.512022098847       -1.040174291266
 O         -0.953140254237       -1.156179551568        0.316877037816
 O          3.750818244363       -0.534755891914        0.464920594315
12
Frame 9
 C          0.087429784876       -0.374762693589        0.366803280014
 C          1.464815759717       -0.976336294909        0.167904968387
 C          2.617633758715       -0.198239412295        0.732372088474
 H         -3.531210404580        2.555117106342       -1.319508987847
 H         -4.070664632958        1.707578506224       -2.486810189526
 H          1.645167575619       -1.118357032323       -0.920366161779
 H          1.600153403646       -2.022115078004        0.523810397955
 H          2.463511512268        0.643112717962        1.401867864547
 H         -0.442750248243       -0.194790592985        1.839654032666
 O         -4.705894878913        1.746859504930       -1.182436756636
 O         -0.900465424736       -1.251057825899        0.385297258103
 O          3.772273794588       -0.517008905455        0.491412205643
12
Frame 10
 C          0.108943884613       -0.364029917086        0.371094007651
 C          1.475911844547       -0.981827138451        0.163801552478
 C          2.626403171467       -0.227963250385        0.764510883203
 H         -3.583967416293        2.497417450867       -1.245246965370
 H         -4.061130188652        1.606632237986       -2.411823399906
 H          1.662762120692       -1.089279630936       -0.927115865526
 H          1.581693270262       -2.036058162384        0.503544126954
 H          2.468008068270        0.637434254156        1.401474419731
 H         -0.380324784498       -0.132494682954        1.775649039221
 O         -4.780659882738        1.860515837609       -1.280689368441
 O         -0.897925633415       -1.199920679370        0.329025400828
 O          3.780285545745       -0.570426319051        0.555776169177
12
Frame 11
 C          0.144988778545       -0.326013206578        0.330830571403
 C          1.494590741242       -0.987131638134        0.159526125697
 C          2.639848070223       -0.272255812636        0.815236013695
 H         -3.632510907161        2.425955503271       -1.183541324086
 H         -4.126903281957        1.515507437660       -2.334530841041
 H          1.714821149185       -1.080419451195       -0.926304791509
 H          1.543583784827       -2.045664479534        0.498004258886
 H          2.480391094684        0.608286511403        1.430747903682
 H         -0.334828514060       -0.013340980914        1.654182161750
 O         -4.824222905384        1.929329757875       -1.315469766453
 O         -0.889414152074       -1.102532176614        0.216490810708
 O          3.789656141931       -0.651721464603        0.654828877269
12
Frame 12
 C          0.202720559944       -0.272625316876        0.271030547188
 C          1.524892853449       -0.994663366364        0.157268758065
 C          2.662128321450       -0.329992456329        0.876503389714
 H         -3.712227407608        2.360194769760       -1.143656426484
 H         -4.262076037014        1.449618295074       -2.275819137857
 H          1.791394949654       -1.087070853145       -0.918066274350
 H          1.500084968110       -2.052873578550        0.498626784927
 H          2.503449540283        0.547594846494        1.496363123175
 H         -0.267568821551        0.141625161666        1.505493129278
 O         -4.885266968252        1.973127591979       -1.324758897902
 O         -0.858922554479       -0.977608893192        0.084517331188
 O          3.801390596013       -0.757326200517        0.772497673057
12
Frame 13
 C          0.472891703360       -0.180635047888        0.181285102818
 C          1.704810373469       -1.051896889481        0.198895760649
 C          2.827269193828       -0.510333364662        1.034992635333
 H         -4.262877687095        2.395469068181       -1.206037470639
 H         -4.884139858461        1.520990832805       -2.335061843986
 H          2.065440825110       -1.180047478783       -0.844723440347
 H          1.515274425670       -2.092888374993        0.540818688033
 H          2.685662111366        0.353721635181        1.677539329738
 H          0.008320874004        0.380267957364        1.296241348376
 O         -5.415385960506        2.165212859345       -1.464855411945
 O         -0.634971332340       -0.740089333773       -0.122333489160
 O          3.917705331593       -1.059771863296        1.043238791131
12
Frame 14
 C          0.536808142937       -0.124542149850        0.125829337118
 C          1.720298075294       -1.055035434716        0.198387053374
 C          2.819779007062       -0.564642991749        1.094379112207
 H         -4.304691980449        2.301624385507       -1.177766923191
 H         -5.030636026565        1.499208036808       -2.303113654076
 H          2.125951069578       -1.193978685483       -0.827034979066
 H          1.453180101455       -2.080984996372        0.533284141445
 H          2.678800531702        0.298694507699        1.738002579061
 H          0.121486902036        0.522421665288        1.153268799449
 O         -5.430524999670        2.167202250641       -1.436093825549
 O         -0.571916474512       -0.605673292352       -0.256383695883
 O          3.881465651134       -1.164293295422        1.157242055110
12
Frame 15
 C          0.580671076444       -0.082874923017        0.097250122441
 C          1.726089182492       -1.054791357949        0.196757463114
 C          2.803062650036       -0.609023298145        1.141966381214
 H         -4.339509482706        2.223616932239       -1.146531942335
 H         -5.135070771906        1.447231643625       -2.244204815506
 H          2.165655383310       -1.189478767888       -0.815052216011
 H          1.399384536933       -2.068934477067        0.513712250843
 H          2.671818713205        0.264358471536        1.773973511791
 H          0.225539869005        0.619544402723        1.053140174552
 O         -5.421143560002        2.191950462396       -1.448921179209
 O         -0.514193388712       -0.492676087245       -0.366473885796
 O          3.837695791901       -1.248923001208        1.244384134901
12
Frame 16
 C          0.618857350222       -0.061901727075        0.116330350571
 C          1.739641499893       -1.060329817024        0.206898689396
 C          2.812391783025       -0.648423604967        1.172011373929
 H         -4.404188748838        2.135667030898       -1.158766951418
 H         -5.292526732289        1.499243329796       -2.275088055074
 H          2.188138115890       -1.182901195726       -0.802439470416
 H          1.373543498791       -2.064854589233        0.510469001701
 H          2.703351465536        0.236699102227        1.791802079156
 H          0.344671574824        0.682400303275        1.011803943118
 O         -5.449875237252        2.191702882893       -1.450073674010
 O         -0.457123286276       -0.404884794096       -0.414361695497
 O          3.823118716475       -1.322416920968        1.291414408545
12
Frame 17
 C          0.642220629670       -0.054271406884        0.180682868764
 C          1.752105684380       -1.065606928645        0.221897919032
 C          2.839443525217       -0.686671737796        1.184131012929
 H         -4.495934496147        2.064842304505       -1.191418473016
 H         -5.444894915405        1.551036995045       -2.321334577411
 H          2.186337655993       -1.159219364597       -0.796652211737
 H          1.365570048716       -2.067026683546        0.509381847136
 H          2.757715591318        0.199421937508        1.806663122200
 H          0.469481087674        0.722889091725        1.020145745989
 O         -5.493659779170        2.207335539528       -1.496085519516
 O         -0.413919245238       -0.328222777723       -0.404536146204
 O          3.835534212992       -1.384506969121        1.287124411834
12
Frame 18
 C          0.870050995800       -0.106745668119        0.354505047466
 C          1.961819980338       -1.135362265848        0.303719702642
 C          3.081024300270       -0.820524717686        1.252298410639
 H         -5.184691263909        2.211984283557       -1.487463656524
 H         -6.279641519109        1.779098084426       -2.530209202427
 H          2.365391601278       -1.178218127337       -0.730610714863
 H          1.552181877403       -2.136466806543        0.557814614310
 H          3.040037158940        0.047147993306        1.904063959389
 H          0.825970875942        0.688423170472        1.142254928256
 O         -6.123099169387        2.482184987154       -1.790142861239
 O         -0.167000897787       -0.281402799490       -0.281239629336
 O          4.057956060220       -1.550118133892        1.305009401686
12
Frame 19
 C          1.133546135119       -0.215319954491        0.530673036626
 C          2.226855117027       -1.235761959430        0.409834600549
 C          3.367883683770       -0.945351966085        1.339861189923
 H         -6.041940596583        2.403933878956       -1.811076461044
 H         -7.209084347693        2.181166329631       -2.831240742381
 H          2.604344218254       -1.238621601613       -0.635056835104
 H          1.812758851324       -2.238716308730        0.648413762361
 H          3.350466186635       -0.083680940649        2.000546684026
 H          1.212542662073        0.614841213948        1.226281717455
 O         -6.928252259000        2.757108400487       -2.076236903994
 O          0.133731952864       -0.313106207051       -0.162154713376
 O          4.337148396209       -1.686490884974        1.360154664959
