8
Frame 0
 C         -1.198517500000       -0.276792500000        0.031180000000
 C         -0.108667500000        0.468897500000       -0.163340000000
 C          1.239132500000       -0.068102500000        0.086940000000
 H         -2.181957500000        0.140337500000       -0.159960000000
 H         -1.122907500000       -1.302532500000        0.380120000000
 H         -0.219207500000        1.491387500000       -0.513000000000
 H          1.372762500000       -1.087362500000        0.436700000000
 O          2.219362500000        0.634167500000       -0.098640000000
8
Frame 1
 C         -1.285583445807       -0.443982731955       -0.207573580088
 C         -0.168206522202        0.458359363215       -0.019046461435
 C          1.189075193606       -0.044399936329        0.170012309813
 H         -2.184914493474        0.319072940537       -0.286022184655
 H         -0.972728601719       -1.405641329420        0.402666390766
 H         -0.161238238943        1.546336594955       -0.248334548927
 H          1.357180187677       -0.986665845586        0.684492885341
 O          2.226415920863        0.556920944583       -0.496194810816
8
Frame 2
 C         -1.285015908250       -0.575822709796       -0.508861732462
 C         -0.234989539054        0.437434920187        0.123267071983
 C          1.144834591193        0.014676604701        0.275487097230
 H         -2.106584324408        0.417866817809       -0.359085452010
 H         -0.873444012520       -1.413570330788        0.389475141689
 H         -0.119632286215        1.569556237589        0.046817303938
 H          1.362564236307       -0.832542282126        0.922068766675
 O          2.112267242946        0.382400742424       -0.889168197044
8
Frame 3
 C         -1.181347597874       -0.643218436364       -0.838142555056
 C         -0.293378359876        0.416155896096        0.259539362260
 C          1.114292695931        0.107902160766        0.377834260698
 H         -2.004560711442        0.452720362200       -0.393791213830
 H         -0.814934006175       -1.378445401790        0.339515739934
 H         -0.111295709350        1.569401211718        0.363597380539
 H          1.389846652037       -0.628214845946        1.132137790307
 O          1.901377036749        0.103699053319       -1.240690764853
8
Frame 4
 C         -1.047407144293       -0.622857223855       -1.186289292030
 C         -0.338937368242        0.409081283099        0.346941922009
 C          1.086679080584        0.238066199295        0.458742712313
 H         -1.952106317526        0.417231131564       -0.323934422707
 H         -0.745711104715       -1.317520797757        0.241597548751
 H         -0.143592182692        1.550944664949        0.681403933583
 H          1.409987569030       -0.390990781144        1.289601682629
 O          1.731087467855       -0.283954476150       -1.508064084547
8
Frame 5
 C         -0.905474764162       -0.708551745376       -1.474713671251
 C         -0.366681573484        0.391544289768        0.414543790866
 C          1.056757570452        0.292720238317        0.565209502095
 H         -1.852258168699        0.447715639298       -0.343466918277
 H         -0.758516094385       -1.254984818450        0.305699323971
 H         -0.131417427653        1.490174995855        0.941807619211
 H          1.373199120209       -0.206116372379        1.485563316068
 O          1.584391337721       -0.452502227034       -1.894642962684
8
Frame 6
 C         -0.716869719318       -0.817675878673       -1.792962674732
 C         -0.380981254979        0.392861680228        0.489665283093
 C          1.021631617492        0.338577276605        0.767120473963
 H         -1.782223533022        0.488171801591       -0.290875294615
 H         -0.783495413325       -1.181162578961        0.416979795917
 H         -0.137113050419        1.453485460000        1.161125104744
 H          1.274113066880       -0.041228320396        1.765721996821
 O          1.504938286691       -0.633029440394       -2.516774685191
8
Frame 7
 C         -0.268809974832       -0.877286733643       -2.156609355290
 C         -0.371688098325        0.444501780967        0.580858545260
 C          0.952482516152        0.427432312179        1.094695014324
 H         -1.763284830085        0.536519934306       -0.082239885306
 H         -0.780591882021       -1.073353072289        0.603722686529
 H         -0.226120394412        1.454137973494        1.418192959766
 H          1.042741690464        0.083450766557        2.132781998145
 O          1.415270973058       -0.995402961570       -3.591401963429
8
Frame 8
 C          0.089014621419       -1.212760437818       -3.472561534978
 C         -0.443721427201        0.489214723354        0.945476385374
 C          0.815208467636        0.627006503972        1.572460921825
 H         -1.799892117433        0.716549324110        0.378880130128
 H         -0.812786920880       -0.960763893132        1.132363360135
 H         -0.341114161751        1.616180061594        1.708161056852
 H          0.930361125222        0.138572249347        2.547081237031
 O          1.562930412987       -1.413998531428       -4.811861556367
8
Frame 9
 C          0.280287068165       -1.311718680463       -3.839634103768
 C         -0.500593611641        0.497563939704        1.141015307471
 C          0.702770922724        0.725527938149        1.824164529260
 H         -1.714153920268        0.748674417763        0.413781641627
 H         -0.728377040392       -0.939046394275        1.161586319805
 H         -0.382996584519        1.716763835216        1.820000237371
 H          0.870123265271        0.143371768677        2.735796120800
 O          1.472939900660       -1.581136824772       -5.256710052566
8
Frame 10
 C          0.381155254157       -1.302026299825       -3.900667461330
 C         -0.499728751423        0.483033487488        1.175276309971
 C          0.604580175180        0.791251845810        1.967445644575
 H         -1.562778459411        0.759145917416        0.322642536378
 H         -0.582210744621       -0.915861614178        1.058157135248
 H         -0.464082876471        1.722965326652        1.913517750084
 H          0.809897369381        0.131500682673        2.810256447143
 O          1.313168033208       -1.670009346036       -5.346628362070
8
Frame 11
 C          0.488817243966       -1.476080148395       -4.454661191467
 C         -0.467913579231        0.517714654380        1.325217606248
 C          0.466117878851        0.888663255641        2.279216978517
 H         -1.349683128376        0.827446773556        0.354475766651
 H         -0.364072561496       -0.816752907635        1.076786091983
 H         -0.612000246410        1.730549259387        2.180795770463
 H          0.611657248796        0.215157158278        3.122130595801
 O          1.227077143899       -1.886698045211       -5.883961618196
8
Frame 12
 C          0.555606219743       -1.467844306021       -4.501179175831
 C         -0.425684759648        0.495393173615        1.309208689422
 C          0.369784145272        0.909111093452        2.355688095341
 H         -1.174197649699        0.849171028273        0.297099332967
 H         -0.183150398798       -0.763783557793        0.997831760542
 H         -0.699801331956        1.688195027975        2.249519256994
 H          0.483222124228        0.231256780346        3.199392883581
 O          1.074221650859       -1.941499239846       -5.907560843016
8
Frame 13
 C          0.611240273776       -1.461586435921       -4.537871285531
 C         -0.383669199355        0.475024492535        1.285382830361
 C          0.274051983310        0.918378584305        2.403277386541
 H         -1.030404936755        0.876309628903        0.268862200866
 H         -0.031484093833       -0.708627582295        0.947630790700
 H         -0.775744684147        1.653948513269        2.294449241527
 H          0.388446801960        0.226170822507        3.234646538094
 O          0.947563855044       -1.979618023302       -5.896377702558
8
Frame 14
 C          0.665134393588       -1.459600113854       -4.582444123665
 C         -0.344953028709        0.456251641945        1.260447359294
 C          0.185458398756        0.916442938896        2.429273217070
 H         -0.952427910211        0.900313627689        0.281956126445
 H          0.068285593306       -0.667928213786        0.929637215905
 H         -0.817493467334        1.650467901180        2.317466834247
 H          0.338185681811        0.210340639114        3.241942730343
 O          0.857810338793       -2.006288421183       -5.878279359640
8
Frame 15
 C          0.712509663903       -1.456996432813       -4.631652426972
 C         -0.294609377185        0.446620122893        1.229195846944
 C          0.110772105990        0.912228593947        2.437042402707
 H         -0.924160381502        0.903293910368        0.313447003521
 H          0.105590116391       -0.656091797910        0.941594674700
 H         -0.830785290542        1.667933276648        2.335391939122
 H          0.319583716064        0.202798261937        3.233357784164
 O          0.801099446882       -2.019785935069       -5.858377224187
8
Frame 16
 C          0.727918906705       -1.480575731546       -4.676304262828
 C         -0.264914634184        0.429796115463        1.210446445293
 C          0.018841489845        0.893935662508        2.445602346531
 H         -0.872581851379        0.910398823108        0.333510204446
 H          0.175134002364       -0.623252735899        0.931385125279
 H         -0.842288749146        1.693188189919        2.370735411959
 H          0.294312596193        0.197512496096        3.232157283864
 O          0.763578239602       -2.021002819649       -5.847532554543
8
Frame 17
 C          0.703591528483       -1.587320166190       -4.869617294423
 C         -0.243867355273        0.431461068911        1.244766446491
 C         -0.090569245306        0.884788855989        2.499761453978
 H         -0.805879647215        0.941787140151        0.393849395805
 H          0.249879848820       -0.563422716507        0.972844975907
 H         -0.863536478796        1.728934556342        2.481094572042
 H          0.255720633252        0.218731319683        3.283844130383
 O          0.794660716036       -2.054960058379       -6.006543680182
8
Frame 18
 C          0.750653966169       -1.854718626219       -5.549751047147
 C         -0.241864980412        0.485976640335        1.438374719931
 C         -0.227820166796        0.926860953309        2.700541050952
 H         -0.749672089858        1.021313873375        0.606465828609
 H          0.301273386000       -0.453161884909        1.187345182299
 H         -0.903269100685        1.809624816748        2.773884034635
 H          0.185200385120        0.314149288567        3.495182138492
 O          0.885498600462       -2.250045061206       -6.652041907772
8
Frame 19
 C          0.891601277996       -2.169980677544       -6.528618706543
 C         -0.246432362245        0.564502416715        1.728301114527
 C         -0.373301206103        1.014568561780        2.975148699088
 H         -0.708629768177        1.097763805367        0.904130350473
 H          0.320086363039       -0.338778850442        1.527350301627
 H         -0.939813336892        1.917859117092        3.176107893087
 H          0.088904033780        0.481313303130        3.799318437338
 O          0.967584998602       -2.567247676099       -7.581738089596
